/*---------------------------------------------------------------------------*\
| =========                 |                                                 |
| \\      /  F ield         | OpenFOAM: The Open Source CFD Toolbox           |
|  \\    /   O peration     | Version:  2.4.x                                 |
|   \\  /    A nd           | Web:      www.OpenFOAM.org                      |
|    \\/     M anipulation  |                                                 |
\*---------------------------------------------------------------------------*/
Build  : 2.4.x-606777138335
Exec   : fireFoam
Date   : Oct 14 2015
Time   : 11:44:49
Host   : "stacyrw7.corp.fmglobal.com"
PID    : 18075
Case   : /Volumes/OpenFoam/fireFoam-2.4.x/fireFoam/cases/uniformSamplingSprinklerInjection
nProcs : 1
sigFpe : Enabling floating point exception trapping (FOAM_SIGFPE).
fileModificationChecking : Monitoring run-time modified files using timeStampMaster
allowSystemOperations : Allowing user-supplied system call operations

// * * * * * * * * * * * * * * * * * * * * * * * * * * * * * * * * * * * * * //
FireFOAM Build Version:  673ae36ee3c150ff0827005a7e0ed50f4e261a32
FireFOAM Build Time Stamp:  Wed Oct 14 11:39:26 EDT 2015
****************************************************
Create time

Create mesh for time = 0


Reading g
Creating combustion model

Selecting combustion model eddyDissipationModel<psiThermoCombustion,gasHThermoPhysics>
Selecting thermodynamics package 
{
    type            hePsiThermo;
    mixture         singleStepReactingMixture;
    transport       sutherland;
    thermo          janaf;
    energy          sensibleEnthalpy;
    equationOfState perfectGas;
    specie          specie;
}

Selecting chemistryReader foamChemistryReader
Fuel heat of combustion :5.00312e+07
stoichiometric air-fuel ratio :17.1204
stoichiometric oxygen-fuel ratio :3.98918
Maximum products mass concentrations:
    H2O: 0.123944
    CO2: 0.151392
    N2: 0.724664
Combustion mode: explicit
Reading thermophysical properties

Creating component thermo properties:
    multi-component carrier - 5 species
    liquids - 1 components
    solids - 0 components
Creating field rho


Reading field U

Reading/calculating face flux field phi

Creating turbulence model

Selecting turbulence model type LESModel
Selecting LES turbulence model oneEqEddy
Selecting LES delta type cubeRootVol
oneEqEddyCoeffs
{
    ce              1.048;
    Prt             1;
    ck              0.094;
}

Creating field dpdt

stoichiometric mixture fraction is = 0.0551866
Creating field kinetic energy K

Calculating field g.h

No finite volume options present


Constructing reacting cloud
Constructing particle forces
    Selecting particle force sphereDrag
    Selecting particle force gravity
Constructing cloud functions
    Selecting cloud function facePostProcessing of type facePostProcessing
        sampleFaces1 faces: 400
        sampleFaces2 faces: 400
    Selecting cloud function particleCollectorFmg of type particleCollectorFmg
Constructing particle injection models
Creating injector: uniformSamplingSprinklerInjection
Selecting injection model uniformSamplingSprinklerInjection
    Constructing 3-D injection
centralCoreAngle: 90
Reading sprinkler injection lookup table data
tableDirectory_: table_K200_120gpm
radius 0.254
idealFlowRate 7.59584 L/s 
factor: 668766
orificeDiameter: 0.0180439
uJet: 29.7048
We: 218702
dv50: 0.00056905
Selecting dispersion model none
Selecting patch interaction model standardWallInteraction
Selecting stochastic collision model none
Selecting surface film model none
Selecting U integration scheme Euler
Selecting heat transfer model none
Selecting T integration scheme analytical
Selecting composition model singlePhaseMixture
Selecting phase change model none

Constructing surface film model
Selecting surfaceFilmModel none
    Selecting region model functions
    none
Creating pyrolysis model collection
Selecting pyrolysisModel none
Selecting radiationModel none
Courant Number mean: 0 max: 0

PIMPLE: Operating solver in PISO mode


Starting time loop

partialWrite partialWrite:
    dumping every 1 th outputTime : 

 d active U positions agefieldAverage fieldAverage1:
    Starting averaging at time 0

Courant Number mean: 0 max: 0
Time = 0.02


Solving 3-D cloud reactingCloud1

--> Cloud: reactingCloud1 injector: uniformSamplingSprinklerInjection
    Added 500 new parcels

Cloud: reactingCloud1
    Current number of parcels       = 500
    Current mass in system          = 0.151917
    Linear momentum                 = (-0.208089 -1.26391 -0.0665822)
   |Linear momentum|                = 1.28266
    Linear kinetic energy           = 20.5014
    uniformSamplingSprinklerInjection:
        number of parcels added     = 500
        mass introduced             = 0.151917
    Parcel fate (number, mass)
      - escape                      = 0, 0
      - stick                       = 0, 0
    Temperature min/max             = 300, 300
    Mass transfer phase change      = 0

diagonal:  Solving for rho, Initial residual = 0, Final residual = 0, No Iterations 0
PIMPLE: iteration 1
DILUPBiCG:  Solving for Ux, Initial residual = 1, Final residual = 2.68095e-10, No Iterations 1
DILUPBiCG:  Solving for Uy, Initial residual = 1, Final residual = 2.75757e-10, No Iterations 1
DILUPBiCG:  Solving for Uz, Initial residual = 1, Final residual = 2.68093e-10, No Iterations 1
DILUPBiCG:  Solving for O2, Initial residual = 0.00314523, Final residual = 1.19735e-12, No Iterations 1
DILUPBiCG:  Solving for H2O, Initial residual = 0, Final residual = 0, No Iterations 0
DILUPBiCG:  Solving for CH4, Initial residual = 0, Final residual = 0, No Iterations 0
DILUPBiCG:  Solving for CO2, Initial residual = 0, Final residual = 0, No Iterations 0
      O2	min/ave/max  =	     0.23301	     0.23301	     0.23301
     H2O	min/ave/max  =	           0	           0	           0
     CH4	min/ave/max  =	           0	           0	           0
     CO2	min/ave/max  =	           0	           0	           0
      N2	min/ave/max  =	     0.76699	     0.76699	     0.76699
DILUPBiCG:  Solving for h, Initial residual = 1, Final residual = 4.6438e-10, No Iterations 1
min/max(T) = 298.15, 298.15
GAMG:  Solving for p_rgh, Initial residual = 0.97457, Final residual = 0.0034942, No Iterations 1
diagonal:  Solving for rho, Initial residual = 0, Final residual = 0, No Iterations 0
time step continuity errors : sum local = 0.0031021, global = -0.0029771, cumulative = -0.0029771
GAMG:  Solving for p_rgh, Initial residual = 0.04499, Final residual = 8.8206e-08, No Iterations 11
diagonal:  Solving for rho, Initial residual = 0, Final residual = 0, No Iterations 0
time step continuity errors : sum local = 6.1168e-09, global = -5.7539e-09, cumulative = -0.0029771
DILUPBiCG:  Solving for k, Initial residual = 1, Final residual = 4.023e-09, No Iterations 2
ExecutionTime = 0.33 s  ClockTime = 1 s

Courant Number mean: 0.033167 max: 0.057567
Time = 0.04


Solving 3-D cloud reactingCloud1

--> Cloud: reactingCloud1 injector: uniformSamplingSprinklerInjection
    Added 500 new parcels

Cloud: reactingCloud1
    Current number of parcels       = 1000
    Current mass in system          = 0.30383
    Linear momentum                 = (-0.31499 -2.3562 -0.064432)
   |Linear momentum|                = 2.378
    Linear kinetic energy           = 33.857
    uniformSamplingSprinklerInjection:
        number of parcels added     = 1000
        mass introduced             = 0.30383
    Parcel fate (number, mass)
      - escape                      = 0, 0
      - stick                       = 0, 0
    Temperature min/max             = 300, 300
    Mass transfer phase change      = 0

diagonal:  Solving for rho, Initial residual = 0, Final residual = 0, No Iterations 0
PIMPLE: iteration 1
DILUPBiCG:  Solving for Ux, Initial residual = 0.33167, Final residual = 1.5083e-09, No Iterations 2
DILUPBiCG:  Solving for Uy, Initial residual = 0.32649, Final residual = 1.5561e-09, No Iterations 2
DILUPBiCG:  Solving for Uz, Initial residual = 0.33168, Final residual = 1.5082e-09, No Iterations 2
DILUPBiCG:  Solving for O2, Initial residual = 0.002405, Final residual = 3.3322e-11, No Iterations 2
DILUPBiCG:  Solving for H2O, Initial residual = 0, Final residual = 0, No Iterations 0
DILUPBiCG:  Solving for CH4, Initial residual = 0, Final residual = 0, No Iterations 0
DILUPBiCG:  Solving for CO2, Initial residual = 0, Final residual = 0, No Iterations 0
      O2	min/ave/max  =	     0.23301	     0.23301	     0.23301
     H2O	min/ave/max  =	           0	           0	           0
     CH4	min/ave/max  =	           0	           0	           0
     CO2	min/ave/max  =	           0	           0	           0
      N2	min/ave/max  =	     0.76699	     0.76699	     0.76699
DILUPBiCG:  Solving for h, Initial residual = 1, Final residual = 3.6171e-09, No Iterations 2
min/max(T) = 298.08, 298.15
GAMG:  Solving for p_rgh, Initial residual = 0.20264, Final residual = 0.0011422, No Iterations 4
diagonal:  Solving for rho, Initial residual = 0, Final residual = 0, No Iterations 0
time step continuity errors : sum local = 0.00011842, global = 0.0001119, cumulative = -0.0028652
GAMG:  Solving for p_rgh, Initial residual = 0.018588, Final residual = 3.8597e-08, No Iterations 9
diagonal:  Solving for rho, Initial residual = 0, Final residual = 0, No Iterations 0
time step continuity errors : sum local = 1.1381e-07, global = -1.1381e-07, cumulative = -0.0028653
DILUPBiCG:  Solving for k, Initial residual = 0.099678, Final residual = 4.3922e-12, No Iterations 2
ExecutionTime = 0.45 s  ClockTime = 1 s

Courant Number mean: 0.0073113 max: 0.020583
Time = 0.06


Solving 3-D cloud reactingCloud1

--> Cloud: reactingCloud1 injector: uniformSamplingSprinklerInjection
    Added 500 new parcels

Cloud: reactingCloud1
    Current number of parcels       = 1500
    Current mass in system          = 0.45575
    Linear momentum                 = (-0.19524 -3.1639 0.016882)
   |Linear momentum|                = 3.17
    Linear kinetic energy           = 43.268
    uniformSamplingSprinklerInjection:
        number of parcels added     = 1500
        mass introduced             = 0.45575
    Parcel fate (number, mass)
      - escape                      = 0, 0
      - stick                       = 0, 0
    Temperature min/max             = 300, 300
    Mass transfer phase change      = 0

diagonal:  Solving for rho, Initial residual = 0, Final residual = 0, No Iterations 0
PIMPLE: iteration 1
DILUPBiCG:  Solving for Ux, Initial residual = 0.88808, Final residual = 1.6308e-11, No Iterations 2
DILUPBiCG:  Solving for Uy, Initial residual = 0.87767, Final residual = 2.3133e-11, No Iterations 2
DILUPBiCG:  Solving for Uz, Initial residual = 0.88855, Final residual = 1.6301e-11, No Iterations 2
DILUPBiCG:  Solving for O2, Initial residual = 0.0023942, Final residual = 1.7867e-12, No Iterations 2
DILUPBiCG:  Solving for H2O, Initial residual = 0, Final residual = 0, No Iterations 0
DILUPBiCG:  Solving for CH4, Initial residual = 0, Final residual = 0, No Iterations 0
DILUPBiCG:  Solving for CO2, Initial residual = 0, Final residual = 0, No Iterations 0
      O2	min/ave/max  =	     0.23301	     0.23301	     0.23301
     H2O	min/ave/max  =	           0	           0	           0
     CH4	min/ave/max  =	           0	           0	           0
     CO2	min/ave/max  =	           0	           0	           0
      N2	min/ave/max  =	     0.76699	     0.76699	     0.76699
DILUPBiCG:  Solving for h, Initial residual = 0.87231, Final residual = 2.077e-11, No Iterations 2
min/max(T) = 298.14, 298.35
GAMG:  Solving for p_rgh, Initial residual = 0.10508, Final residual = 0.0004075, No Iterations 4
diagonal:  Solving for rho, Initial residual = 0, Final residual = 0, No Iterations 0
time step continuity errors : sum local = 3.2428e-05, global = -3.0578e-05, cumulative = -0.0028959
GAMG:  Solving for p_rgh, Initial residual = 0.035029, Final residual = 9.501e-08, No Iterations 9
diagonal:  Solving for rho, Initial residual = 0, Final residual = 0, No Iterations 0
time step continuity errors : sum local = 8.6191e-09, global = 8.3902e-09, cumulative = -0.0028958
DILUPBiCG:  Solving for k, Initial residual = 0.017796, Final residual = 1.1607e-13, No Iterations 2
ExecutionTime = 0.58 s  ClockTime = 1 s

Courant Number mean: 0.0033122 max: 0.016205
Time = 0.08


Solving 3-D cloud reactingCloud1

--> Cloud: reactingCloud1 injector: uniformSamplingSprinklerInjection
    Added 500 new parcels

Cloud: reactingCloud1
    Current number of parcels       = 2000
    Current mass in system          = 0.60767
    Linear momentum                 = (-0.18466 -3.9267 0.0010149)
   |Linear momentum|                = 3.931
    Linear kinetic energy           = 50.319
    uniformSamplingSprinklerInjection:
        number of parcels added     = 2000
        mass introduced             = 0.60767
    Parcel fate (number, mass)
      - escape                      = 0, 0
      - stick                       = 0, 0
    Temperature min/max             = 300, 300
    Mass transfer phase change      = 0

diagonal:  Solving for rho, Initial residual = 0, Final residual = 0, No Iterations 0
PIMPLE: iteration 1
DILUPBiCG:  Solving for Ux, Initial residual = 0.71759, Final residual = 7.2999e-13, No Iterations 2
DILUPBiCG:  Solving for Uy, Initial residual = 0.55995, Final residual = 2.6474e-12, No Iterations 2
DILUPBiCG:  Solving for Uz, Initial residual = 0.7181, Final residual = 7.2529e-13, No Iterations 2
DILUPBiCG:  Solving for O2, Initial residual = 0.0024358, Final residual = 7.5613e-09, No Iterations 1
DILUPBiCG:  Solving for H2O, Initial residual = 0, Final residual = 0, No Iterations 0
DILUPBiCG:  Solving for CH4, Initial residual = 0, Final residual = 0, No Iterations 0
DILUPBiCG:  Solving for CO2, Initial residual = 0, Final residual = 0, No Iterations 0
      O2	min/ave/max  =	     0.23301	     0.23301	     0.23301
     H2O	min/ave/max  =	           0	           0	           0
     CH4	min/ave/max  =	           0	           0	           0
     CO2	min/ave/max  =	           0	           0	           0
      N2	min/ave/max  =	     0.76699	     0.76699	     0.76699
DILUPBiCG:  Solving for h, Initial residual = 0.27451, Final residual = 3.7974e-13, No Iterations 2
min/max(T) = 298.15, 298.29
GAMG:  Solving for p_rgh, Initial residual = 0.13427, Final residual = 0.00078981, No Iterations 4
diagonal:  Solving for rho, Initial residual = 0, Final residual = 0, No Iterations 0
time step continuity errors : sum local = 2.7717e-05, global = -2.6206e-05, cumulative = -0.0029221
GAMG:  Solving for p_rgh, Initial residual = 0.018209, Final residual = 6.2245e-08, No Iterations 10
diagonal:  Solving for rho, Initial residual = 0, Final residual = 0, No Iterations 0
time step continuity errors : sum local = 8.5535e-09, global = 7.784e-09, cumulative = -0.002922
DILUPBiCG:  Solving for k, Initial residual = 0.0089863, Final residual = 3.6218e-14, No Iterations 2
ExecutionTime = 0.71 s  ClockTime = 1 s

Courant Number mean: 0.0014323 max: 0.010529
Time = 0.1


Solving 3-D cloud reactingCloud1

--> Cloud: reactingCloud1 injector: uniformSamplingSprinklerInjection
    Added 500 new parcels

Cloud: reactingCloud1
    Current number of parcels       = 2500
    Current mass in system          = 0.75958
    Linear momentum                 = (-0.1214 -4.6482 0.095487)
   |Linear momentum|                = 4.6508
    Linear kinetic energy           = 56.223
    uniformSamplingSprinklerInjection:
        number of parcels added     = 2500
        mass introduced             = 0.75958
    Parcel fate (number, mass)
      - escape                      = 0, 0
      - stick                       = 0, 0
    Temperature min/max             = 300, 300
    Mass transfer phase change      = 0

diagonal:  Solving for rho, Initial residual = 0, Final residual = 0, No Iterations 0
PIMPLE: iteration 1
DILUPBiCG:  Solving for Ux, Initial residual = 0.46105, Final residual = 3.6317e-13, No Iterations 2
DILUPBiCG:  Solving for Uy, Initial residual = 0.3608, Final residual = 2.5439e-13, No Iterations 2
DILUPBiCG:  Solving for Uz, Initial residual = 0.46233, Final residual = 3.3601e-13, No Iterations 2
DILUPBiCG:  Solving for O2, Initial residual = 0.002448, Final residual = 2.0877e-09, No Iterations 1
DILUPBiCG:  Solving for H2O, Initial residual = 0, Final residual = 0, No Iterations 0
DILUPBiCG:  Solving for CH4, Initial residual = 0, Final residual = 0, No Iterations 0
DILUPBiCG:  Solving for CO2, Initial residual = 0, Final residual = 0, No Iterations 0
      O2	min/ave/max  =	     0.23301	     0.23301	     0.23301
     H2O	min/ave/max  =	           0	           0	           0
     CH4	min/ave/max  =	           0	           0	           0
     CO2	min/ave/max  =	           0	           0	           0
      N2	min/ave/max  =	     0.76699	     0.76699	     0.76699
DILUPBiCG:  Solving for h, Initial residual = 0.36224, Final residual = 9.6957e-14, No Iterations 2
min/max(T) = 298.15, 298.23
GAMG:  Solving for p_rgh, Initial residual = 0.19149, Final residual = 0.00095531, No Iterations 4
diagonal:  Solving for rho, Initial residual = 0, Final residual = 0, No Iterations 0
time step continuity errors : sum local = 4.4994e-06, global = -4.6745e-07, cumulative = -0.0029225
GAMG:  Solving for p_rgh, Initial residual = 0.016766, Final residual = 5.3873e-08, No Iterations 9
diagonal:  Solving for rho, Initial residual = 0, Final residual = 0, No Iterations 0
time step continuity errors : sum local = 7.5765e-10, global = -1.8515e-10, cumulative = -0.0029225
DILUPBiCG:  Solving for k, Initial residual = 0.0062521, Final residual = 2.0525e-14, No Iterations 2
ExecutionTime = 0.84 s  ClockTime = 1 s

Courant Number mean: 0.0011536 max: 0.016389
Time = 0.12


Solving 3-D cloud reactingCloud1

--> Cloud: reactingCloud1 injector: uniformSamplingSprinklerInjection
    Added 500 new parcels

Cloud: reactingCloud1
    Current number of parcels       = 3000
    Current mass in system          = 0.9115
    Linear momentum                 = (-0.11607 -5.2872 0.077463)
   |Linear momentum|                = 5.2891
    Linear kinetic energy           = 60.234
    uniformSamplingSprinklerInjection:
        number of parcels added     = 3000
        mass introduced             = 0.9115
    Parcel fate (number, mass)
      - escape                      = 0, 0
      - stick                       = 0, 0
    Temperature min/max             = 300, 300
    Mass transfer phase change      = 0

diagonal:  Solving for rho, Initial residual = 0, Final residual = 0, No Iterations 0
PIMPLE: iteration 1
DILUPBiCG:  Solving for Ux, Initial residual = 0.30863, Final residual = 5.1869e-08, No Iterations 1
DILUPBiCG:  Solving for Uy, Initial residual = 0.21766, Final residual = 7.5713e-08, No Iterations 1
DILUPBiCG:  Solving for Uz, Initial residual = 0.30816, Final residual = 4.3427e-08, No Iterations 1
DILUPBiCG:  Solving for O2, Initial residual = 0.0024694, Final residual = 5.642e-13, No Iterations 2
DILUPBiCG:  Solving for H2O, Initial residual = 0, Final residual = 0, No Iterations 0
DILUPBiCG:  Solving for CH4, Initial residual = 0, Final residual = 0, No Iterations 0
DILUPBiCG:  Solving for CO2, Initial residual = 0, Final residual = 0, No Iterations 0
      O2	min/ave/max  =	     0.23301	     0.23301	     0.23301
     H2O	min/ave/max  =	           0	           0	           0
     CH4	min/ave/max  =	           0	           0	           0
     CO2	min/ave/max  =	           0	           0	           0
      N2	min/ave/max  =	     0.76699	     0.76699	     0.76699
DILUPBiCG:  Solving for h, Initial residual = 0.022624, Final residual = 9.7701e-09, No Iterations 1
min/max(T) = 298.15, 298.23
GAMG:  Solving for p_rgh, Initial residual = 0.14654, Final residual = 0.00062793, No Iterations 4
diagonal:  Solving for rho, Initial residual = 0, Final residual = 0, No Iterations 0
time step continuity errors : sum local = 2.8045e-06, global = 2.3389e-06, cumulative = -0.0029202
GAMG:  Solving for p_rgh, Initial residual = 0.058752, Final residual = 3.4378e-08, No Iterations 9
diagonal:  Solving for rho, Initial residual = 0, Final residual = 0, No Iterations 0
time step continuity errors : sum local = 6.3558e-10, global = -6.1316e-10, cumulative = -0.0029202
DILUPBiCG:  Solving for k, Initial residual = 0.0057238, Final residual = 3.115e-13, No Iterations 2
ExecutionTime = 0.97 s  ClockTime = 1 s

Courant Number mean: 0.001042 max: 0.019876
Time = 0.14


Solving 3-D cloud reactingCloud1

--> Cloud: reactingCloud1 injector: uniformSamplingSprinklerInjection
    Added 500 new parcels

Cloud: reactingCloud1
    Current number of parcels       = 3500
    Current mass in system          = 1.0634
    Linear momentum                 = (-0.099664 -5.8787 0.034089)
   |Linear momentum|                = 5.8796
    Linear kinetic energy           = 64.102
    uniformSamplingSprinklerInjection:
        number of parcels added     = 3500
        mass introduced             = 1.0634
    Parcel fate (number, mass)
      - escape                      = 0, 0
      - stick                       = 0, 0
    Temperature min/max             = 300, 300
    Mass transfer phase change      = 0

diagonal:  Solving for rho, Initial residual = 0, Final residual = 0, No Iterations 0
PIMPLE: iteration 1
DILUPBiCG:  Solving for Ux, Initial residual = 0.14213, Final residual = 2.6706e-12, No Iterations 2
DILUPBiCG:  Solving for Uy, Initial residual = 0.094616, Final residual = 6.3544e-08, No Iterations 1
DILUPBiCG:  Solving for Uz, Initial residual = 0.14189, Final residual = 1.7619e-12, No Iterations 2
DILUPBiCG:  Solving for O2, Initial residual = 0.002499, Final residual = 4.0715e-09, No Iterations 1
DILUPBiCG:  Solving for H2O, Initial residual = 0, Final residual = 0, No Iterations 0
DILUPBiCG:  Solving for CH4, Initial residual = 0, Final residual = 0, No Iterations 0
DILUPBiCG:  Solving for CO2, Initial residual = 0, Final residual = 0, No Iterations 0
      O2	min/ave/max  =	     0.23301	     0.23301	     0.23301
     H2O	min/ave/max  =	           0	           0	           0
     CH4	min/ave/max  =	           0	           0	           0
     CO2	min/ave/max  =	           0	           0	           0
      N2	min/ave/max  =	     0.76699	     0.76699	     0.76699
DILUPBiCG:  Solving for h, Initial residual = 0.05755, Final residual = 8.5521e-09, No Iterations 1
min/max(T) = 298.15, 298.24
GAMG:  Solving for p_rgh, Initial residual = 0.18186, Final residual = 0.00074571, No Iterations 3
diagonal:  Solving for rho, Initial residual = 0, Final residual = 0, No Iterations 0
time step continuity errors : sum local = 1.3706e-06, global = -8.5991e-07, cumulative = -0.002921
GAMG:  Solving for p_rgh, Initial residual = 0.057194, Final residual = 3.8166e-08, No Iterations 9
diagonal:  Solving for rho, Initial residual = 0, Final residual = 0, No Iterations 0
time step continuity errors : sum local = 5.5003e-10, global = 4.378e-10, cumulative = -0.002921
DILUPBiCG:  Solving for k, Initial residual = 0.0059466, Final residual = 1.1368e-12, No Iterations 2
ExecutionTime = 1.11 s  ClockTime = 2 s

Courant Number mean: 0.00096387 max: 0.022376
Time = 0.16


Solving 3-D cloud reactingCloud1

--> Cloud: reactingCloud1 injector: uniformSamplingSprinklerInjection
    Added 500 new parcels

Cloud: reactingCloud1
    Current number of parcels       = 4000
    Current mass in system          = 1.2153
    Linear momentum                 = (-0.12385 -6.3997 0.0084814)
   |Linear momentum|                = 6.4009
    Linear kinetic energy           = 67.845
    uniformSamplingSprinklerInjection:
        number of parcels added     = 4000
        mass introduced             = 1.2153
    Parcel fate (number, mass)
      - escape                      = 0, 0
      - stick                       = 0, 0
    Temperature min/max             = 300, 300
    Mass transfer phase change      = 0

diagonal:  Solving for rho, Initial residual = 0, Final residual = 0, No Iterations 0
PIMPLE: iteration 1
DILUPBiCG:  Solving for Ux, Initial residual = 0.13599, Final residual = 5.8083e-12, No Iterations 2
DILUPBiCG:  Solving for Uy, Initial residual = 0.077605, Final residual = 7.0492e-08, No Iterations 1
DILUPBiCG:  Solving for Uz, Initial residual = 0.13613, Final residual = 3.9174e-12, No Iterations 2
DILUPBiCG:  Solving for O2, Initial residual = 0.0024946, Final residual = 8.3877e-10, No Iterations 1
DILUPBiCG:  Solving for H2O, Initial residual = 0, Final residual = 0, No Iterations 0
DILUPBiCG:  Solving for CH4, Initial residual = 0, Final residual = 0, No Iterations 0
DILUPBiCG:  Solving for CO2, Initial residual = 0, Final residual = 0, No Iterations 0
      O2	min/ave/max  =	     0.23301	     0.23301	     0.23301
     H2O	min/ave/max  =	           0	           0	           0
     CH4	min/ave/max  =	           0	           0	           0
     CO2	min/ave/max  =	           0	           0	           0
      N2	min/ave/max  =	     0.76699	     0.76699	     0.76699
DILUPBiCG:  Solving for h, Initial residual = 0.0026665, Final residual = 1.0449e-09, No Iterations 1
min/max(T) = 298.15, 298.24
GAMG:  Solving for p_rgh, Initial residual = 0.16232, Final residual = 0.0015842, No Iterations 3
diagonal:  Solving for rho, Initial residual = 0, Final residual = 0, No Iterations 0
time step continuity errors : sum local = 2.5088e-06, global = -2.3878e-06, cumulative = -0.0029234
GAMG:  Solving for p_rgh, Initial residual = 0.057264, Final residual = 7.9201e-08, No Iterations 9
diagonal:  Solving for rho, Initial residual = 0, Final residual = 0, No Iterations 0
time step continuity errors : sum local = 2.7989e-10, global = 5.2936e-11, cumulative = -0.0029234
DILUPBiCG:  Solving for k, Initial residual = 0.0068229, Final residual = 6.1361e-12, No Iterations 2
ExecutionTime = 1.24 s  ClockTime = 2 s

Courant Number mean: 0.0009475 max: 0.025046
Time = 0.18


Solving 3-D cloud reactingCloud1

--> Cloud: reactingCloud1 injector: uniformSamplingSprinklerInjection
    Added 500 new parcels

Cloud: reactingCloud1
    Current number of parcels       = 4500
    Current mass in system          = 1.3673
    Linear momentum                 = (-0.13227 -6.961 -0.011145)
   |Linear momentum|                = 6.9623
    Linear kinetic energy           = 70.921
    uniformSamplingSprinklerInjection:
        number of parcels added     = 4500
        mass introduced             = 1.3673
    Parcel fate (number, mass)
      - escape                      = 0, 0
      - stick                       = 0, 0
    Temperature min/max             = 300, 300
    Mass transfer phase change      = 0

diagonal:  Solving for rho, Initial residual = 0, Final residual = 0, No Iterations 0
PIMPLE: iteration 1
DILUPBiCG:  Solving for Ux, Initial residual = 0.058555, Final residual = 8.0959e-12, No Iterations 2
DILUPBiCG:  Solving for Uy, Initial residual = 0.064801, Final residual = 8.0267e-08, No Iterations 1
DILUPBiCG:  Solving for Uz, Initial residual = 0.058003, Final residual = 5.26e-12, No Iterations 2
DILUPBiCG:  Solving for O2, Initial residual = 0.0024771, Final residual = 2.6358e-09, No Iterations 1
DILUPBiCG:  Solving for H2O, Initial residual = 0, Final residual = 0, No Iterations 0
DILUPBiCG:  Solving for CH4, Initial residual = 0, Final residual = 0, No Iterations 0
DILUPBiCG:  Solving for CO2, Initial residual = 0, Final residual = 0, No Iterations 0
      O2	min/ave/max  =	     0.23301	     0.23301	     0.23301
     H2O	min/ave/max  =	           0	           0	           0
     CH4	min/ave/max  =	           0	           0	           0
     CO2	min/ave/max  =	           0	           0	           0
      N2	min/ave/max  =	     0.76699	     0.76699	     0.76699
DILUPBiCG:  Solving for h, Initial residual = 0.0094782, Final residual = 4.3781e-09, No Iterations 1
min/max(T) = 298.15, 298.24
GAMG:  Solving for p_rgh, Initial residual = 0.15915, Final residual = 0.00093756, No Iterations 3
diagonal:  Solving for rho, Initial residual = 0, Final residual = 0, No Iterations 0
time step continuity errors : sum local = 1.0475e-06, global = -9.2209e-07, cumulative = -0.0029243
GAMG:  Solving for p_rgh, Initial residual = 0.051286, Final residual = 3.6637e-08, No Iterations 10
diagonal:  Solving for rho, Initial residual = 0, Final residual = 0, No Iterations 0
time step continuity errors : sum local = 1.9452e-10, global = -4.0684e-11, cumulative = -0.0029243
DILUPBiCG:  Solving for k, Initial residual = 0.0082778, Final residual = 3.2415e-11, No Iterations 2
ExecutionTime = 1.39 s  ClockTime = 2 s

Courant Number mean: 0.00094929 max: 0.027785
Time = 0.2


Solving 3-D cloud reactingCloud1

--> Cloud: reactingCloud1 injector: uniformSamplingSprinklerInjection
    Added 500 new parcels

Cloud: reactingCloud1
    Current number of parcels       = 5000
    Current mass in system          = 1.5192
    Linear momentum                 = (-0.1414 -7.421 -0.05088)
   |Linear momentum|                = 7.4225
    Linear kinetic energy           = 73.494
    uniformSamplingSprinklerInjection:
        number of parcels added     = 5000
        mass introduced             = 1.5192
    Parcel fate (number, mass)
      - escape                      = 0, 0
      - stick                       = 0, 0
    Temperature min/max             = 300, 300
    Mass transfer phase change      = 0

diagonal:  Solving for rho, Initial residual = 0, Final residual = 0, No Iterations 0
PIMPLE: iteration 1
DILUPBiCG:  Solving for Ux, Initial residual = 0.045597, Final residual = 1.161e-11, No Iterations 2
DILUPBiCG:  Solving for Uy, Initial residual = 0.05385, Final residual = 6.0729e-12, No Iterations 2
DILUPBiCG:  Solving for Uz, Initial residual = 0.045455, Final residual = 9.6528e-12, No Iterations 2
DILUPBiCG:  Solving for O2, Initial residual = 0.0024621, Final residual = 4.3577e-09, No Iterations 1
DILUPBiCG:  Solving for H2O, Initial residual = 0, Final residual = 0, No Iterations 0
DILUPBiCG:  Solving for CH4, Initial residual = 0, Final residual = 0, No Iterations 0
DILUPBiCG:  Solving for CO2, Initial residual = 0, Final residual = 0, No Iterations 0
      O2	min/ave/max  =	     0.23301	     0.23301	     0.23301
     H2O	min/ave/max  =	           0	           0	           0
     CH4	min/ave/max  =	           0	           0	           0
     CO2	min/ave/max  =	           0	           0	           0
      N2	min/ave/max  =	     0.76699	     0.76699	     0.76699
DILUPBiCG:  Solving for h, Initial residual = 0.0013884, Final residual = 2.7724e-09, No Iterations 1
min/max(T) = 298.15, 298.24
GAMG:  Solving for p_rgh, Initial residual = 0.13561, Final residual = 0.00081252, No Iterations 3
diagonal:  Solving for rho, Initial residual = 0, Final residual = 0, No Iterations 0
time step continuity errors : sum local = 8.0781e-07, global = 2.3474e-08, cumulative = -0.0029243
GAMG:  Solving for p_rgh, Initial residual = 0.037447, Final residual = 5.6998e-08, No Iterations 9
diagonal:  Solving for rho, Initial residual = 0, Final residual = 0, No Iterations 0
time step continuity errors : sum local = 1.323e-10, global = 8.8991e-12, cumulative = -0.0029243
DILUPBiCG:  Solving for k, Initial residual = 0.010457, Final residual = 1.3749e-10, No Iterations 2
ExecutionTime = 1.54 s  ClockTime = 2 s

Courant Number mean: 0.00095131 max: 0.031053
Time = 0.22


Solving 3-D cloud reactingCloud1

--> Cloud: reactingCloud1 injector: uniformSamplingSprinklerInjection
    Added 500 new parcels

Cloud: reactingCloud1
    Current number of parcels       = 5500
    Current mass in system          = 1.6711
    Linear momentum                 = (-0.041018 -7.8999 0.036546)
   |Linear momentum|                = 7.9001
    Linear kinetic energy           = 74.938
    uniformSamplingSprinklerInjection:
        number of parcels added     = 5500
        mass introduced             = 1.6711
    Parcel fate (number, mass)
      - escape                      = 0, 0
      - stick                       = 0, 0
    Temperature min/max             = 300, 300
    Mass transfer phase change      = 0

diagonal:  Solving for rho, Initial residual = 0, Final residual = 0, No Iterations 0
PIMPLE: iteration 1
DILUPBiCG:  Solving for Ux, Initial residual = 0.044243, Final residual = 1.9158e-11, No Iterations 2
DILUPBiCG:  Solving for Uy, Initial residual = 0.046326, Final residual = 1.107e-11, No Iterations 2
DILUPBiCG:  Solving for Uz, Initial residual = 0.044622, Final residual = 2.0625e-11, No Iterations 2
DILUPBiCG:  Solving for O2, Initial residual = 0.002474, Final residual = 1.8522e-13, No Iterations 2
DILUPBiCG:  Solving for H2O, Initial residual = 0, Final residual = 0, No Iterations 0
DILUPBiCG:  Solving for CH4, Initial residual = 0, Final residual = 0, No Iterations 0
DILUPBiCG:  Solving for CO2, Initial residual = 0, Final residual = 0, No Iterations 0
      O2	min/ave/max  =	     0.23301	     0.23301	     0.23301
     H2O	min/ave/max  =	           0	           0	           0
     CH4	min/ave/max  =	           0	           0	           0
     CO2	min/ave/max  =	           0	           0	           0
      N2	min/ave/max  =	     0.76699	     0.76699	     0.76699
DILUPBiCG:  Solving for h, Initial residual = 0.0012705, Final residual = 2.1916e-09, No Iterations 1
min/max(T) = 298.15, 298.24
GAMG:  Solving for p_rgh, Initial residual = 0.11474, Final residual = 0.00051093, No Iterations 3
diagonal:  Solving for rho, Initial residual = 0, Final residual = 0, No Iterations 0
time step continuity errors : sum local = 4.6392e-07, global = -1.8902e-07, cumulative = -0.0029245
GAMG:  Solving for p_rgh, Initial residual = 0.034918, Final residual = 6.1858e-08, No Iterations 9
diagonal:  Solving for rho, Initial residual = 0, Final residual = 0, No Iterations 0
time step continuity errors : sum local = 1.1055e-10, global = 1.4567e-12, cumulative = -0.0029245
DILUPBiCG:  Solving for k, Initial residual = 0.013496, Final residual = 6.6747e-10, No Iterations 2
ExecutionTime = 1.7 s  ClockTime = 2 s

Courant Number mean: 0.00096437 max: 0.033673
Time = 0.24


Solving 3-D cloud reactingCloud1

--> Cloud: reactingCloud1 injector: uniformSamplingSprinklerInjection
    Added 500 new parcels

Cloud: reactingCloud1
    Current number of parcels       = 6000
    Current mass in system          = 1.823
    Linear momentum                 = (0.12117 -8.4387 0.12088)
   |Linear momentum|                = 8.4405
    Linear kinetic energy           = 77.017
    uniformSamplingSprinklerInjection:
        number of parcels added     = 6000
        mass introduced             = 1.823
    Parcel fate (number, mass)
      - escape                      = 0, 0
      - stick                       = 0, 0
    Temperature min/max             = 300, 300
    Mass transfer phase change      = 0

diagonal:  Solving for rho, Initial residual = 0, Final residual = 0, No Iterations 0
PIMPLE: iteration 1
DILUPBiCG:  Solving for Ux, Initial residual = 0.041373, Final residual = 3.747e-11, No Iterations 2
DILUPBiCG:  Solving for Uy, Initial residual = 0.04184, Final residual = 1.7924e-11, No Iterations 2
DILUPBiCG:  Solving for Uz, Initial residual = 0.041534, Final residual = 2.9821e-11, No Iterations 2
DILUPBiCG:  Solving for O2, Initial residual = 0.0024698, Final residual = 8.9578e-09, No Iterations 1
DILUPBiCG:  Solving for H2O, Initial residual = 0, Final residual = 0, No Iterations 0
DILUPBiCG:  Solving for CH4, Initial residual = 0, Final residual = 0, No Iterations 0
DILUPBiCG:  Solving for CO2, Initial residual = 0, Final residual = 0, No Iterations 0
      O2	min/ave/max  =	     0.23301	     0.23301	     0.23301
     H2O	min/ave/max  =	           0	           0	           0
     CH4	min/ave/max  =	           0	           0	           0
     CO2	min/ave/max  =	           0	           0	           0
      N2	min/ave/max  =	     0.76699	     0.76699	     0.76699
DILUPBiCG:  Solving for h, Initial residual = 0.00057897, Final residual = 4.8094e-09, No Iterations 1
min/max(T) = 298.15, 298.24
GAMG:  Solving for p_rgh, Initial residual = 0.10605, Final residual = 0.00045314, No Iterations 3
diagonal:  Solving for rho, Initial residual = 0, Final residual = 0, No Iterations 0
time step continuity errors : sum local = 3.7783e-07, global = -2.2796e-07, cumulative = -0.0029247
GAMG:  Solving for p_rgh, Initial residual = 0.03127, Final residual = 5.0663e-08, No Iterations 9
diagonal:  Solving for rho, Initial residual = 0, Final residual = 0, No Iterations 0
time step continuity errors : sum local = 8.7423e-11, global = 9.9387e-12, cumulative = -0.0029247
DILUPBiCG:  Solving for k, Initial residual = 0.017246, Final residual = 6.7143e-10, No Iterations 2
ExecutionTime = 1.86 s  ClockTime = 2 s

Courant Number mean: 0.00098391 max: 0.035048
Time = 0.26


Solving 3-D cloud reactingCloud1

--> Cloud: reactingCloud1 injector: uniformSamplingSprinklerInjection
    Added 500 new parcels

Cloud: reactingCloud1
    Current number of parcels       = 6500
    Current mass in system          = 1.9749
    Linear momentum                 = (0.040074 -8.885 0.061777)
   |Linear momentum|                = 8.8853
    Linear kinetic energy           = 77.832
    uniformSamplingSprinklerInjection:
        number of parcels added     = 6500
        mass introduced             = 1.9749
    Parcel fate (number, mass)
      - escape                      = 0, 0
      - stick                       = 0, 0
    Temperature min/max             = 300, 300
    Mass transfer phase change      = 0

diagonal:  Solving for rho, Initial residual = 0, Final residual = 0, No Iterations 0
PIMPLE: iteration 1
DILUPBiCG:  Solving for Ux, Initial residual = 0.03683, Final residual = 2.4857e-11, No Iterations 2
DILUPBiCG:  Solving for Uy, Initial residual = 0.038289, Final residual = 2.3059e-11, No Iterations 2
DILUPBiCG:  Solving for Uz, Initial residual = 0.03701, Final residual = 2.5237e-11, No Iterations 2
DILUPBiCG:  Solving for O2, Initial residual = 0.0024955, Final residual = 3.3153e-12, No Iterations 2
DILUPBiCG:  Solving for H2O, Initial residual = 0, Final residual = 0, No Iterations 0
DILUPBiCG:  Solving for CH4, Initial residual = 0, Final residual = 0, No Iterations 0
DILUPBiCG:  Solving for CO2, Initial residual = 0, Final residual = 0, No Iterations 0
      O2	min/ave/max  =	     0.23301	     0.23301	     0.23301
     H2O	min/ave/max  =	           0	           0	           0
     CH4	min/ave/max  =	           0	           0	           0
     CO2	min/ave/max  =	           0	           0	           0
      N2	min/ave/max  =	     0.76699	     0.76699	     0.76699
DILUPBiCG:  Solving for h, Initial residual = 0.00057623, Final residual = 3.4299e-09, No Iterations 1
min/max(T) = 298.15, 298.24
GAMG:  Solving for p_rgh, Initial residual = 0.097897, Final residual = 0.00043518, No Iterations 3
diagonal:  Solving for rho, Initial residual = 0, Final residual = 0, No Iterations 0
time step continuity errors : sum local = 3.3351e-07, global = -1.707e-07, cumulative = -0.0029249
GAMG:  Solving for p_rgh, Initial residual = 0.031273, Final residual = 4.7601e-08, No Iterations 9
diagonal:  Solving for rho, Initial residual = 0, Final residual = 0, No Iterations 0
time step continuity errors : sum local = 6.72e-11, global = -3.0028e-11, cumulative = -0.0029249
DILUPBiCG:  Solving for k, Initial residual = 0.02218, Final residual = 2.5655e-09, No Iterations 2
ExecutionTime = 2.02 s  ClockTime = 2 s

Courant Number mean: 0.0010108 max: 0.038182
Time = 0.28


Solving 3-D cloud reactingCloud1

--> Cloud: reactingCloud1 injector: uniformSamplingSprinklerInjection
    Added 500 new parcels

Cloud: reactingCloud1
    Current number of parcels       = 7000
    Current mass in system          = 2.1268
    Linear momentum                 = (0.01903 -9.356 0.082661)
   |Linear momentum|                = 9.3564
    Linear kinetic energy           = 79.812
    uniformSamplingSprinklerInjection:
        number of parcels added     = 7000
        mass introduced             = 2.1268
    Parcel fate (number, mass)
      - escape                      = 0, 0
      - stick                       = 0, 0
    Temperature min/max             = 300, 300
    Mass transfer phase change      = 0

diagonal:  Solving for rho, Initial residual = 0, Final residual = 0, No Iterations 0
PIMPLE: iteration 1
DILUPBiCG:  Solving for Ux, Initial residual = 0.033948, Final residual = 3.7479e-11, No Iterations 2
DILUPBiCG:  Solving for Uy, Initial residual = 0.035028, Final residual = 3.5051e-11, No Iterations 2
DILUPBiCG:  Solving for Uz, Initial residual = 0.033762, Final residual = 3.0938e-11, No Iterations 2
DILUPBiCG:  Solving for O2, Initial residual = 0.0025224, Final residual = 1.1859e-12, No Iterations 2
DILUPBiCG:  Solving for H2O, Initial residual = 0, Final residual = 0, No Iterations 0
DILUPBiCG:  Solving for CH4, Initial residual = 0, Final residual = 0, No Iterations 0
DILUPBiCG:  Solving for CO2, Initial residual = 0, Final residual = 0, No Iterations 0
      O2	min/ave/max  =	     0.23301	     0.23301	     0.23301
     H2O	min/ave/max  =	           0	           0	           0
     CH4	min/ave/max  =	           0	           0	           0
     CO2	min/ave/max  =	           0	           0	           0
      N2	min/ave/max  =	     0.76699	     0.76699	     0.76699
DILUPBiCG:  Solving for h, Initial residual = 0.00040581, Final residual = 5.6358e-13, No Iterations 2
min/max(T) = 298.15, 298.24
GAMG:  Solving for p_rgh, Initial residual = 0.091093, Final residual = 0.00041146, No Iterations 3
diagonal:  Solving for rho, Initial residual = 0, Final residual = 0, No Iterations 0
time step continuity errors : sum local = 2.9186e-07, global = -1.575e-07, cumulative = -0.0029251
GAMG:  Solving for p_rgh, Initial residual = 0.02833, Final residual = 4.7095e-08, No Iterations 9
diagonal:  Solving for rho, Initial residual = 0, Final residual = 0, No Iterations 0
time step continuity errors : sum local = 5.7456e-11, global = -2.3094e-11, cumulative = -0.0029251
DILUPBiCG:  Solving for k, Initial residual = 0.027593, Final residual = 4.8889e-09, No Iterations 2
ExecutionTime = 2.2 s  ClockTime = 3 s

Courant Number mean: 0.001039 max: 0.040997
Time = 0.3


Solving 3-D cloud reactingCloud1

--> Cloud: reactingCloud1 injector: uniformSamplingSprinklerInjection
    Added 500 new parcels

Cloud: reactingCloud1
    Current number of parcels       = 7500
    Current mass in system          = 2.2788
    Linear momentum                 = (-0.0094239 -9.74 0.15046)
   |Linear momentum|                = 9.7412
    Linear kinetic energy           = 82.071
    uniformSamplingSprinklerInjection:
        number of parcels added     = 7500
        mass introduced             = 2.2788
    Parcel fate (number, mass)
      - escape                      = 0, 0
      - stick                       = 0, 0
    Temperature min/max             = 300, 300
    Mass transfer phase change      = 0

diagonal:  Solving for rho, Initial residual = 0, Final residual = 0, No Iterations 0
PIMPLE: iteration 1
DILUPBiCG:  Solving for Ux, Initial residual = 0.030439, Final residual = 4.7239e-11, No Iterations 2
DILUPBiCG:  Solving for Uy, Initial residual = 0.032201, Final residual = 4.6114e-11, No Iterations 2
DILUPBiCG:  Solving for Uz, Initial residual = 0.030144, Final residual = 3.4497e-11, No Iterations 2
DILUPBiCG:  Solving for O2, Initial residual = 0.0024443, Final residual = 7.399e-09, No Iterations 1
DILUPBiCG:  Solving for H2O, Initial residual = 0, Final residual = 0, No Iterations 0
DILUPBiCG:  Solving for CH4, Initial residual = 0, Final residual = 0, No Iterations 0
DILUPBiCG:  Solving for CO2, Initial residual = 0, Final residual = 0, No Iterations 0
      O2	min/ave/max  =	     0.23301	     0.23301	     0.23301
     H2O	min/ave/max  =	           0	           0	           0
     CH4	min/ave/max  =	           0	           0	           0
     CO2	min/ave/max  =	           0	           0	           0
      N2	min/ave/max  =	     0.76699	     0.76699	     0.76699
DILUPBiCG:  Solving for h, Initial residual = 0.00040912, Final residual = 7.029e-13, No Iterations 2
min/max(T) = 298.15, 298.24
GAMG:  Solving for p_rgh, Initial residual = 0.084897, Final residual = 0.0004307, No Iterations 3
diagonal:  Solving for rho, Initial residual = 0, Final residual = 0, No Iterations 0
time step continuity errors : sum local = 2.8408e-07, global = -1.5414e-07, cumulative = -0.0029252
GAMG:  Solving for p_rgh, Initial residual = 0.029501, Final residual = 4.8214e-08, No Iterations 9
diagonal:  Solving for rho, Initial residual = 0, Final residual = 0, No Iterations 0
time step continuity errors : sum local = 5.7227e-11, global = -3.8991e-11, cumulative = -0.0029252
DILUPBiCG:  Solving for k, Initial residual = 0.033388, Final residual = 2.3065e-15, No Iterations 3
ExecutionTime = 2.37 s  ClockTime = 3 s

Courant Number mean: 0.0010683 max: 0.043617
Time = 0.32


Solving 3-D cloud reactingCloud1

--> Cloud: reactingCloud1 injector: uniformSamplingSprinklerInjection
    Added 500 new parcels

Cloud: reactingCloud1
    Current number of parcels       = 8000
    Current mass in system          = 2.4307
    Linear momentum                 = (-0.0046724 -10.258 0.18074)
   |Linear momentum|                = 10.26
    Linear kinetic energy           = 83.429
    uniformSamplingSprinklerInjection:
        number of parcels added     = 8000
        mass introduced             = 2.4307
    Parcel fate (number, mass)
      - escape                      = 0, 0
      - stick                       = 0, 0
    Temperature min/max             = 300, 300
    Mass transfer phase change      = 0

diagonal:  Solving for rho, Initial residual = 0, Final residual = 0, No Iterations 0
PIMPLE: iteration 1
DILUPBiCG:  Solving for Ux, Initial residual = 0.02775, Final residual = 6.2586e-11, No Iterations 2
DILUPBiCG:  Solving for Uy, Initial residual = 0.030667, Final residual = 5.821e-11, No Iterations 2
DILUPBiCG:  Solving for Uz, Initial residual = 0.027214, Final residual = 4.4846e-11, No Iterations 2
DILUPBiCG:  Solving for O2, Initial residual = 0.0025054, Final residual = 1.1779e-12, No Iterations 2
DILUPBiCG:  Solving for H2O, Initial residual = 0, Final residual = 0, No Iterations 0
DILUPBiCG:  Solving for CH4, Initial residual = 0, Final residual = 0, No Iterations 0
DILUPBiCG:  Solving for CO2, Initial residual = 0, Final residual = 0, No Iterations 0
      O2	min/ave/max  =	     0.23301	     0.23301	     0.23301
     H2O	min/ave/max  =	           0	           0	           0
     CH4	min/ave/max  =	           0	           0	           0
     CO2	min/ave/max  =	           0	           0	           0
      N2	min/ave/max  =	     0.76699	     0.76699	     0.76699
DILUPBiCG:  Solving for h, Initial residual = 0.00035452, Final residual = 5.9685e-13, No Iterations 2
min/max(T) = 298.15, 298.24
GAMG:  Solving for p_rgh, Initial residual = 0.081829, Final residual = 0.00041395, No Iterations 3
diagonal:  Solving for rho, Initial residual = 0, Final residual = 0, No Iterations 0
time step continuity errors : sum local = 2.5555e-07, global = -8.9005e-08, cumulative = -0.0029253
GAMG:  Solving for p_rgh, Initial residual = 0.024768, Final residual = 4.4079e-08, No Iterations 9
diagonal:  Solving for rho, Initial residual = 0, Final residual = 0, No Iterations 0
time step continuity errors : sum local = 4.8981e-11, global = -3.2409e-11, cumulative = -0.0029253
DILUPBiCG:  Solving for k, Initial residual = 0.039682, Final residual = 4.5422e-15, No Iterations 3
ExecutionTime = 2.55 s  ClockTime = 3 s

Courant Number mean: 0.0010989 max: 0.046251
Time = 0.34


Solving 3-D cloud reactingCloud1

--> Cloud: reactingCloud1 injector: uniformSamplingSprinklerInjection
    Added 500 new parcels

Cloud: reactingCloud1
    Current number of parcels       = 8500
    Current mass in system          = 2.5826
    Linear momentum                 = (0.0084031 -10.587 0.087679)
   |Linear momentum|                = 10.587
    Linear kinetic energy           = 84.006
    uniformSamplingSprinklerInjection:
        number of parcels added     = 8500
        mass introduced             = 2.5826
    Parcel fate (number, mass)
      - escape                      = 0, 0
      - stick                       = 0, 0
    Temperature min/max             = 300, 300
    Mass transfer phase change      = 0

diagonal:  Solving for rho, Initial residual = 0, Final residual = 0, No Iterations 0
PIMPLE: iteration 1
DILUPBiCG:  Solving for Ux, Initial residual = 0.026026, Final residual = 6.297e-11, No Iterations 2
DILUPBiCG:  Solving for Uy, Initial residual = 0.028956, Final residual = 7.262e-11, No Iterations 2
DILUPBiCG:  Solving for Uz, Initial residual = 0.025262, Final residual = 3.0118e-11, No Iterations 2
DILUPBiCG:  Solving for O2, Initial residual = 0.002526, Final residual = 2.3037e-11, No Iterations 2
DILUPBiCG:  Solving for H2O, Initial residual = 0, Final residual = 0, No Iterations 0
DILUPBiCG:  Solving for CH4, Initial residual = 0, Final residual = 0, No Iterations 0
DILUPBiCG:  Solving for CO2, Initial residual = 0, Final residual = 0, No Iterations 0
      O2	min/ave/max  =	     0.23301	     0.23301	     0.23301
     H2O	min/ave/max  =	           0	           0	           0
     CH4	min/ave/max  =	           0	           0	           0
     CO2	min/ave/max  =	           0	           0	           0
      N2	min/ave/max  =	     0.76699	     0.76699	     0.76699
DILUPBiCG:  Solving for h, Initial residual = 0.00028582, Final residual = 9.7924e-09, No Iterations 1
min/max(T) = 298.15, 298.24
GAMG:  Solving for p_rgh, Initial residual = 0.073943, Final residual = 0.0003367, No Iterations 3
diagonal:  Solving for rho, Initial residual = 0, Final residual = 0, No Iterations 0
time step continuity errors : sum local = 1.9597e-07, global = -5.7911e-08, cumulative = -0.0029254
GAMG:  Solving for p_rgh, Initial residual = 0.025347, Final residual = 3.6284e-08, No Iterations 9
diagonal:  Solving for rho, Initial residual = 0, Final residual = 0, No Iterations 0
time step continuity errors : sum local = 4.8458e-11, global = -3.8235e-11, cumulative = -0.0029254
DILUPBiCG:  Solving for k, Initial residual = 0.045631, Final residual = 6.5017e-15, No Iterations 3
ExecutionTime = 2.73 s  ClockTime = 3 s

Courant Number mean: 0.0011301 max: 0.049053
Time = 0.36


Solving 3-D cloud reactingCloud1

--> Cloud: reactingCloud1 injector: uniformSamplingSprinklerInjection
    Added 500 new parcels

Cloud: reactingCloud1
    Current number of parcels       = 9000
    Current mass in system          = 2.7345
    Linear momentum                 = (-0.0065158 -11.143 0.1089)
   |Linear momentum|                = 11.144
    Linear kinetic energy           = 86.292
    uniformSamplingSprinklerInjection:
        number of parcels added     = 9000
        mass introduced             = 2.7345
    Parcel fate (number, mass)
      - escape                      = 0, 0
      - stick                       = 0, 0
    Temperature min/max             = 300, 300
    Mass transfer phase change      = 0

diagonal:  Solving for rho, Initial residual = 0, Final residual = 0, No Iterations 0
PIMPLE: iteration 1
DILUPBiCG:  Solving for Ux, Initial residual = 0.023501, Final residual = 4.692e-11, No Iterations 2
DILUPBiCG:  Solving for Uy, Initial residual = 0.027283, Final residual = 8.7761e-11, No Iterations 2
DILUPBiCG:  Solving for Uz, Initial residual = 0.023496, Final residual = 4.2441e-11, No Iterations 2
DILUPBiCG:  Solving for O2, Initial residual = 0.0024609, Final residual = 4.4429e-12, No Iterations 2
DILUPBiCG:  Solving for H2O, Initial residual = 0, Final residual = 0, No Iterations 0
DILUPBiCG:  Solving for CH4, Initial residual = 0, Final residual = 0, No Iterations 0
DILUPBiCG:  Solving for CO2, Initial residual = 0, Final residual = 0, No Iterations 0
      O2	min/ave/max  =	     0.23301	     0.23301	     0.23301
     H2O	min/ave/max  =	           0	           0	           0
     CH4	min/ave/max  =	           0	           0	           0
     CO2	min/ave/max  =	           0	           0	           0
      N2	min/ave/max  =	     0.76699	     0.76699	     0.76699
DILUPBiCG:  Solving for h, Initial residual = 0.00024849, Final residual = 7.7319e-09, No Iterations 1
min/max(T) = 298.15, 298.24
GAMG:  Solving for p_rgh, Initial residual = 0.074067, Final residual = 0.00032563, No Iterations 3
diagonal:  Solving for rho, Initial residual = 0, Final residual = 0, No Iterations 0
time step continuity errors : sum local = 1.7896e-07, global = -4.7599e-08, cumulative = -0.0029254
GAMG:  Solving for p_rgh, Initial residual = 0.024275, Final residual = 3.8837e-08, No Iterations 9
diagonal:  Solving for rho, Initial residual = 0, Final residual = 0, No Iterations 0
time step continuity errors : sum local = 4.3567e-11, global = -3.4102e-11, cumulative = -0.0029254
DILUPBiCG:  Solving for k, Initial residual = 0.050367, Final residual = 1.0918e-14, No Iterations 3
ExecutionTime = 2.92 s  ClockTime = 3 s

Courant Number mean: 0.001159 max: 0.0519
Time = 0.38


Solving 3-D cloud reactingCloud1

--> Cloud: reactingCloud1 injector: uniformSamplingSprinklerInjection
    Added 500 new parcels

Cloud: reactingCloud1
    Current number of parcels       = 9500
    Current mass in system          = 2.8864
    Linear momentum                 = (-0.11674 -11.488 0.1063)
   |Linear momentum|                = 11.489
    Linear kinetic energy           = 87.874
    uniformSamplingSprinklerInjection:
        number of parcels added     = 9500
        mass introduced             = 2.8864
    Parcel fate (number, mass)
      - escape                      = 0, 0
      - stick                       = 0, 0
    Temperature min/max             = 300, 300
    Mass transfer phase change      = 0

diagonal:  Solving for rho, Initial residual = 0, Final residual = 0, No Iterations 0
PIMPLE: iteration 1
DILUPBiCG:  Solving for Ux, Initial residual = 0.021932, Final residual = 5.2828e-11, No Iterations 2
DILUPBiCG:  Solving for Uy, Initial residual = 0.025726, Final residual = 1.0029e-10, No Iterations 2
DILUPBiCG:  Solving for Uz, Initial residual = 0.022225, Final residual = 4.2589e-11, No Iterations 2
DILUPBiCG:  Solving for O2, Initial residual = 0.0024927, Final residual = 5.3988e-13, No Iterations 2
DILUPBiCG:  Solving for H2O, Initial residual = 0, Final residual = 0, No Iterations 0
DILUPBiCG:  Solving for CH4, Initial residual = 0, Final residual = 0, No Iterations 0
DILUPBiCG:  Solving for CO2, Initial residual = 0, Final residual = 0, No Iterations 0
      O2	min/ave/max  =	     0.23301	     0.23301	     0.23301
     H2O	min/ave/max  =	           0	           0	           0
     CH4	min/ave/max  =	           0	           0	           0
     CO2	min/ave/max  =	           0	           0	           0
      N2	min/ave/max  =	     0.76699	     0.76699	     0.76699
DILUPBiCG:  Solving for h, Initial residual = 0.00024809, Final residual = 9.0308e-09, No Iterations 1
min/max(T) = 298.15, 298.24
GAMG:  Solving for p_rgh, Initial residual = 0.073762, Final residual = 0.0003339, No Iterations 3
diagonal:  Solving for rho, Initial residual = 0, Final residual = 0, No Iterations 0
time step continuity errors : sum local = 1.7248e-07, global = -3.8303e-08, cumulative = -0.0029255
GAMG:  Solving for p_rgh, Initial residual = 0.027325, Final residual = 3.6526e-08, No Iterations 9
diagonal:  Solving for rho, Initial residual = 0, Final residual = 0, No Iterations 0
time step continuity errors : sum local = 4.7548e-11, global = -4.2232e-11, cumulative = -0.0029255
DILUPBiCG:  Solving for k, Initial residual = 0.054247, Final residual = 1.5031e-14, No Iterations 3
ExecutionTime = 3.11 s  ClockTime = 4 s

Courant Number mean: 0.0011875 max: 0.054664
Time = 0.4


Solving 3-D cloud reactingCloud1

--> Cloud: reactingCloud1 injector: uniformSamplingSprinklerInjection
    Added 500 new parcels

Cloud: reactingCloud1
    Current number of parcels       = 10000
    Current mass in system          = 3.0383
    Linear momentum                 = (-0.080297 -11.979 0.016672)
   |Linear momentum|                = 11.98
    Linear kinetic energy           = 88.902
    uniformSamplingSprinklerInjection:
        number of parcels added     = 10000
        mass introduced             = 3.0383
    Parcel fate (number, mass)
      - escape                      = 0, 0
      - stick                       = 0, 0
    Temperature min/max             = 300, 300
    Mass transfer phase change      = 0

diagonal:  Solving for rho, Initial residual = 0, Final residual = 0, No Iterations 0
PIMPLE: iteration 1
DILUPBiCG:  Solving for Ux, Initial residual = 0.02061, Final residual = 8.7358e-11, No Iterations 2
DILUPBiCG:  Solving for Uy, Initial residual = 0.024447, Final residual = 1.2907e-10, No Iterations 2
DILUPBiCG:  Solving for Uz, Initial residual = 0.020901, Final residual = 1.3117e-10, No Iterations 2
DILUPBiCG:  Solving for O2, Initial residual = 0.0025217, Final residual = 1.3072e-11, No Iterations 2
DILUPBiCG:  Solving for H2O, Initial residual = 0, Final residual = 0, No Iterations 0
DILUPBiCG:  Solving for CH4, Initial residual = 0, Final residual = 0, No Iterations 0
DILUPBiCG:  Solving for CO2, Initial residual = 0, Final residual = 0, No Iterations 0
      O2	min/ave/max  =	     0.23301	     0.23301	     0.23301
     H2O	min/ave/max  =	           0	           0	           0
     CH4	min/ave/max  =	           0	           0	           0
     CO2	min/ave/max  =	           0	           0	           0
      N2	min/ave/max  =	     0.76699	     0.76699	     0.76699
DILUPBiCG:  Solving for h, Initial residual = 0.00023957, Final residual = 1.5908e-12, No Iterations 2
min/max(T) = 298.15, 298.24
GAMG:  Solving for p_rgh, Initial residual = 0.075894, Final residual = 0.00038251, No Iterations 3
diagonal:  Solving for rho, Initial residual = 0, Final residual = 0, No Iterations 0
time step continuity errors : sum local = 1.863e-07, global = -1.4852e-08, cumulative = -0.0029255
GAMG:  Solving for p_rgh, Initial residual = 0.026692, Final residual = 4.3554e-08, No Iterations 9
diagonal:  Solving for rho, Initial residual = 0, Final residual = 0, No Iterations 0
time step continuity errors : sum local = 4.3354e-11, global = -3.3519e-11, cumulative = -0.0029255
DILUPBiCG:  Solving for k, Initial residual = 0.057194, Final residual = 2.0879e-14, No Iterations 3
ExecutionTime = 3.3 s  ClockTime = 4 s

Courant Number mean: 0.0012166 max: 0.057376
Time = 0.42


Solving 3-D cloud reactingCloud1

--> Cloud: reactingCloud1 injector: uniformSamplingSprinklerInjection
    Added 500 new parcels

Cloud: reactingCloud1
    Current number of parcels       = 10500
    Current mass in system          = 3.1903
    Linear momentum                 = (-0.069365 -12.394 0.10005)
   |Linear momentum|                = 12.394
    Linear kinetic energy           = 89.342
    uniformSamplingSprinklerInjection:
        number of parcels added     = 10500
        mass introduced             = 3.1903
    Parcel fate (number, mass)
      - escape                      = 0, 0
      - stick                       = 0, 0
    Temperature min/max             = 300, 300
    Mass transfer phase change      = 0

diagonal:  Solving for rho, Initial residual = 0, Final residual = 0, No Iterations 0
PIMPLE: iteration 1
DILUPBiCG:  Solving for Ux, Initial residual = 0.020247, Final residual = 8.4705e-11, No Iterations 2
DILUPBiCG:  Solving for Uy, Initial residual = 0.023365, Final residual = 1.2778e-10, No Iterations 2
DILUPBiCG:  Solving for Uz, Initial residual = 0.020414, Final residual = 7.6706e-11, No Iterations 2
DILUPBiCG:  Solving for O2, Initial residual = 0.0024864, Final residual = 3.6969e-11, No Iterations 2
DILUPBiCG:  Solving for H2O, Initial residual = 0, Final residual = 0, No Iterations 0
DILUPBiCG:  Solving for CH4, Initial residual = 0, Final residual = 0, No Iterations 0
DILUPBiCG:  Solving for CO2, Initial residual = 0, Final residual = 0, No Iterations 0
      O2	min/ave/max  =	     0.23301	     0.23301	     0.23301
     H2O	min/ave/max  =	           0	           0	           0
     CH4	min/ave/max  =	           0	           0	           0
     CO2	min/ave/max  =	           0	           0	           0
      N2	min/ave/max  =	     0.76699	     0.76699	     0.76699
DILUPBiCG:  Solving for h, Initial residual = 0.00022834, Final residual = 3.2526e-12, No Iterations 2
min/max(T) = 298.15, 298.24
GAMG:  Solving for p_rgh, Initial residual = 0.072268, Final residual = 0.00031792, No Iterations 3
diagonal:  Solving for rho, Initial residual = 0, Final residual = 0, No Iterations 0
time step continuity errors : sum local = 1.466e-07, global = -1.9125e-08, cumulative = -0.0029255
GAMG:  Solving for p_rgh, Initial residual = 0.027872, Final residual = 4.0571e-08, No Iterations 9
diagonal:  Solving for rho, Initial residual = 0, Final residual = 0, No Iterations 0
time step continuity errors : sum local = 4.5581e-11, global = -3.9511e-11, cumulative = -0.0029255
DILUPBiCG:  Solving for k, Initial residual = 0.059339, Final residual = 2.5971e-14, No Iterations 3
ExecutionTime = 3.49 s  ClockTime = 4 s

Courant Number mean: 0.0012471 max: 0.05949
Time = 0.44


Solving 3-D cloud reactingCloud1

--> Cloud: reactingCloud1 injector: uniformSamplingSprinklerInjection
    Added 500 new parcels

Cloud: reactingCloud1
    Current number of parcels       = 11000
    Current mass in system          = 3.3422
    Linear momentum                 = (-0.090036 -12.895 0.10122)
   |Linear momentum|                = 12.895
    Linear kinetic energy           = 91.203
    uniformSamplingSprinklerInjection:
        number of parcels added     = 11000
        mass introduced             = 3.3422
    Parcel fate (number, mass)
      - escape                      = 0, 0
      - stick                       = 0, 0
    Temperature min/max             = 300, 300
    Mass transfer phase change      = 0

diagonal:  Solving for rho, Initial residual = 0, Final residual = 0, No Iterations 0
PIMPLE: iteration 1
DILUPBiCG:  Solving for Ux, Initial residual = 0.019332, Final residual = 1.4207e-10, No Iterations 2
DILUPBiCG:  Solving for Uy, Initial residual = 0.022495, Final residual = 1.4493e-10, No Iterations 2
DILUPBiCG:  Solving for Uz, Initial residual = 0.019567, Final residual = 3.2538e-10, No Iterations 2
DILUPBiCG:  Solving for O2, Initial residual = 0.0024808, Final residual = 6.7752e-12, No Iterations 2
DILUPBiCG:  Solving for H2O, Initial residual = 0, Final residual = 0, No Iterations 0
DILUPBiCG:  Solving for CH4, Initial residual = 0, Final residual = 0, No Iterations 0
DILUPBiCG:  Solving for CO2, Initial residual = 0, Final residual = 0, No Iterations 0
      O2	min/ave/max  =	     0.23301	     0.23301	     0.23301
     H2O	min/ave/max  =	           0	           0	           0
     CH4	min/ave/max  =	           0	           0	           0
     CO2	min/ave/max  =	           0	           0	           0
      N2	min/ave/max  =	     0.76699	     0.76699	     0.76699
DILUPBiCG:  Solving for h, Initial residual = 0.00021788, Final residual = 2.1476e-12, No Iterations 2
min/max(T) = 298.15, 298.24
GAMG:  Solving for p_rgh, Initial residual = 0.069978, Final residual = 0.00026053, No Iterations 3
diagonal:  Solving for rho, Initial residual = 0, Final residual = 0, No Iterations 0
time step continuity errors : sum local = 1.1408e-07, global = -2.1697e-08, cumulative = -0.0029255
GAMG:  Solving for p_rgh, Initial residual = 0.02483, Final residual = 3.6814e-08, No Iterations 9
diagonal:  Solving for rho, Initial residual = 0, Final residual = 0, No Iterations 0
time step continuity errors : sum local = 4.4783e-11, global = -3.9336e-11, cumulative = -0.0029255
DILUPBiCG:  Solving for k, Initial residual = 0.06008, Final residual = 3.1065e-14, No Iterations 3
ExecutionTime = 3.7 s  ClockTime = 4 s

Courant Number mean: 0.0012759 max: 0.061931
Time = 0.46


Solving 3-D cloud reactingCloud1

--> Cloud: reactingCloud1 injector: uniformSamplingSprinklerInjection
    Added 500 new parcels

Cloud: reactingCloud1
    Current number of parcels       = 11500
    Current mass in system          = 3.4941
    Linear momentum                 = (-0.19329 -13.22 0.034542)
   |Linear momentum|                = 13.221
    Linear kinetic energy           = 92.07
    uniformSamplingSprinklerInjection:
        number of parcels added     = 11500
        mass introduced             = 3.4941
    Parcel fate (number, mass)
      - escape                      = 0, 0
      - stick                       = 0, 0
    Temperature min/max             = 300, 300
    Mass transfer phase change      = 0

diagonal:  Solving for rho, Initial residual = 0, Final residual = 0, No Iterations 0
PIMPLE: iteration 1
DILUPBiCG:  Solving for Ux, Initial residual = 0.018678, Final residual = 9.4978e-11, No Iterations 2
DILUPBiCG:  Solving for Uy, Initial residual = 0.021854, Final residual = 1.6602e-10, No Iterations 2
DILUPBiCG:  Solving for Uz, Initial residual = 0.018587, Final residual = 1.584e-10, No Iterations 2
DILUPBiCG:  Solving for O2, Initial residual = 0.0025586, Final residual = 2.6988e-12, No Iterations 2
DILUPBiCG:  Solving for H2O, Initial residual = 0, Final residual = 0, No Iterations 0
DILUPBiCG:  Solving for CH4, Initial residual = 0, Final residual = 0, No Iterations 0
DILUPBiCG:  Solving for CO2, Initial residual = 0, Final residual = 0, No Iterations 0
      O2	min/ave/max  =	     0.23301	     0.23301	     0.23301
     H2O	min/ave/max  =	           0	           0	           0
     CH4	min/ave/max  =	           0	           0	           0
     CO2	min/ave/max  =	           0	           0	           0
      N2	min/ave/max  =	     0.76699	     0.76699	     0.76699
DILUPBiCG:  Solving for h, Initial residual = 0.00022965, Final residual = 2.1628e-12, No Iterations 2
min/max(T) = 298.15, 298.24
GAMG:  Solving for p_rgh, Initial residual = 0.065985, Final residual = 0.00026227, No Iterations 3
diagonal:  Solving for rho, Initial residual = 0, Final residual = 0, No Iterations 0
time step continuity errors : sum local = 1.0967e-07, global = -6.2656e-09, cumulative = -0.0029255
GAMG:  Solving for p_rgh, Initial residual = 0.025936, Final residual = 7.7987e-08, No Iterations 8
diagonal:  Solving for rho, Initial residual = 0, Final residual = 0, No Iterations 0
time step continuity errors : sum local = 4.2569e-11, global = -1.5101e-11, cumulative = -0.0029255
DILUPBiCG:  Solving for k, Initial residual = 0.060184, Final residual = 5.2747e-14, No Iterations 3
ExecutionTime = 3.9 s  ClockTime = 4 s

Courant Number mean: 0.0013063 max: 0.065525
Time = 0.48


Solving 3-D cloud reactingCloud1

--> Cloud: reactingCloud1 injector: uniformSamplingSprinklerInjection
    Added 500 new parcels

Cloud: reactingCloud1
    Current number of parcels       = 12000
    Current mass in system          = 3.646
    Linear momentum                 = (-0.011905 -13.611 0.10809)
   |Linear momentum|                = 13.612
    Linear kinetic energy           = 93.379
    uniformSamplingSprinklerInjection:
        number of parcels added     = 12000
        mass introduced             = 3.646
    Parcel fate (number, mass)
      - escape                      = 0, 0
      - stick                       = 0, 0
    Temperature min/max             = 300, 300
    Mass transfer phase change      = 0

diagonal:  Solving for rho, Initial residual = 0, Final residual = 0, No Iterations 0
PIMPLE: iteration 1
DILUPBiCG:  Solving for Ux, Initial residual = 0.01791, Final residual = 3.4659e-10, No Iterations 2
DILUPBiCG:  Solving for Uy, Initial residual = 0.021328, Final residual = 2.1257e-10, No Iterations 2
DILUPBiCG:  Solving for Uz, Initial residual = 0.018134, Final residual = 1.3836e-09, No Iterations 2
DILUPBiCG:  Solving for O2, Initial residual = 0.0024675, Final residual = 1.6846e-11, No Iterations 2
DILUPBiCG:  Solving for H2O, Initial residual = 0, Final residual = 0, No Iterations 0
DILUPBiCG:  Solving for CH4, Initial residual = 0, Final residual = 0, No Iterations 0
DILUPBiCG:  Solving for CO2, Initial residual = 0, Final residual = 0, No Iterations 0
      O2	min/ave/max  =	     0.23301	     0.23301	     0.23301
     H2O	min/ave/max  =	           0	           0	           0
     CH4	min/ave/max  =	           0	           0	           0
     CO2	min/ave/max  =	           0	           0	           0
      N2	min/ave/max  =	     0.76699	     0.76699	     0.76699
DILUPBiCG:  Solving for h, Initial residual = 0.00021812, Final residual = 6.1738e-13, No Iterations 2
min/max(T) = 298.15, 298.24
GAMG:  Solving for p_rgh, Initial residual = 0.070137, Final residual = 0.00023033, No Iterations 3
diagonal:  Solving for rho, Initial residual = 0, Final residual = 0, No Iterations 0
time step continuity errors : sum local = 9.3424e-08, global = 7.0155e-10, cumulative = -0.0029255
GAMG:  Solving for p_rgh, Initial residual = 0.023531, Final residual = 9.9432e-08, No Iterations 8
diagonal:  Solving for rho, Initial residual = 0, Final residual = 0, No Iterations 0
time step continuity errors : sum local = 4.4664e-11, global = 7.1156e-12, cumulative = -0.0029255
DILUPBiCG:  Solving for k, Initial residual = 0.059303, Final residual = 7.7026e-14, No Iterations 3
ExecutionTime = 4.11 s  ClockTime = 5 s

Courant Number mean: 0.0013351 max: 0.067429
Time = 0.5


Solving 3-D cloud reactingCloud1

--> Cloud: reactingCloud1 injector: uniformSamplingSprinklerInjection
    Added 500 new parcels

Cloud: reactingCloud1
    Current number of parcels       = 12500
    Current mass in system          = 3.7979
    Linear momentum                 = (-0.19286 -14.056 0.062529)
   |Linear momentum|                = 14.058
    Linear kinetic energy           = 94.754
    uniformSamplingSprinklerInjection:
        number of parcels added     = 12500
        mass introduced             = 3.7979
    Parcel fate (number, mass)
      - escape                      = 0, 0
      - stick                       = 0, 0
    Temperature min/max             = 300, 300
    Mass transfer phase change      = 0

diagonal:  Solving for rho, Initial residual = 0, Final residual = 0, No Iterations 0
PIMPLE: iteration 1
DILUPBiCG:  Solving for Ux, Initial residual = 0.017396, Final residual = 8.4644e-10, No Iterations 2
DILUPBiCG:  Solving for Uy, Initial residual = 0.020799, Final residual = 1.9029e-10, No Iterations 2
DILUPBiCG:  Solving for Uz, Initial residual = 0.017301, Final residual = 1.0834e-10, No Iterations 2
DILUPBiCG:  Solving for O2, Initial residual = 0.002497, Final residual = 2.1504e-11, No Iterations 2
DILUPBiCG:  Solving for H2O, Initial residual = 0, Final residual = 0, No Iterations 0
DILUPBiCG:  Solving for CH4, Initial residual = 0, Final residual = 0, No Iterations 0
DILUPBiCG:  Solving for CO2, Initial residual = 0, Final residual = 0, No Iterations 0
      O2	min/ave/max  =	     0.23301	     0.23301	     0.23301
     H2O	min/ave/max  =	           0	           0	           0
     CH4	min/ave/max  =	           0	           0	           0
     CO2	min/ave/max  =	           0	           0	           0
      N2	min/ave/max  =	     0.76699	     0.76699	     0.76699
DILUPBiCG:  Solving for h, Initial residual = 0.00023296, Final residual = 5.8111e-13, No Iterations 2
min/max(T) = 298.15, 298.24
GAMG:  Solving for p_rgh, Initial residual = 0.061359, Final residual = 0.00020521, No Iterations 3
diagonal:  Solving for rho, Initial residual = 0, Final residual = 0, No Iterations 0
time step continuity errors : sum local = 8.1035e-08, global = -2.9646e-09, cumulative = -0.0029255
GAMG:  Solving for p_rgh, Initial residual = 0.01881, Final residual = 6.1821e-08, No Iterations 8
diagonal:  Solving for rho, Initial residual = 0, Final residual = 0, No Iterations 0
time step continuity errors : sum local = 3.3904e-11, global = -1.0087e-11, cumulative = -0.0029255
DILUPBiCG:  Solving for k, Initial residual = 0.057926, Final residual = 9.716e-14, No Iterations 3
ExecutionTime = 4.32 s  ClockTime = 5 s

Courant Number mean: 0.0013643 max: 0.070507
Time = 0.52


Solving 3-D cloud reactingCloud1

--> Cloud: reactingCloud1 injector: uniformSamplingSprinklerInjection
    Added 500 new parcels

Cloud: reactingCloud1
    Current number of parcels       = 13000
    Current mass in system          = 3.9498
    Linear momentum                 = (-0.1998 -14.474 0.090971)
   |Linear momentum|                = 14.475
    Linear kinetic energy           = 95.599
    uniformSamplingSprinklerInjection:
        number of parcels added     = 13000
        mass introduced             = 3.9498
    Parcel fate (number, mass)
      - escape                      = 0, 0
      - stick                       = 0, 0
    Temperature min/max             = 300, 300
    Mass transfer phase change      = 0

diagonal:  Solving for rho, Initial residual = 0, Final residual = 0, No Iterations 0
PIMPLE: iteration 1
DILUPBiCG:  Solving for Ux, Initial residual = 0.017244, Final residual = 1.7991e-09, No Iterations 2
DILUPBiCG:  Solving for Uy, Initial residual = 0.020361, Final residual = 2.1006e-10, No Iterations 2
DILUPBiCG:  Solving for Uz, Initial residual = 0.017062, Final residual = 1.4065e-10, No Iterations 2
DILUPBiCG:  Solving for O2, Initial residual = 0.0025459, Final residual = 2.798e-12, No Iterations 2
DILUPBiCG:  Solving for H2O, Initial residual = 0, Final residual = 0, No Iterations 0
DILUPBiCG:  Solving for CH4, Initial residual = 0, Final residual = 0, No Iterations 0
DILUPBiCG:  Solving for CO2, Initial residual = 0, Final residual = 0, No Iterations 0
      O2	min/ave/max  =	     0.23301	     0.23301	     0.23301
     H2O	min/ave/max  =	           0	           0	           0
     CH4	min/ave/max  =	           0	           0	           0
     CO2	min/ave/max  =	           0	           0	           0
      N2	min/ave/max  =	     0.76699	     0.76699	     0.76699
DILUPBiCG:  Solving for h, Initial residual = 0.00023266, Final residual = 1.8424e-12, No Iterations 2
min/max(T) = 298.15, 298.24
GAMG:  Solving for p_rgh, Initial residual = 0.057506, Final residual = 0.00018296, No Iterations 3
diagonal:  Solving for rho, Initial residual = 0, Final residual = 0, No Iterations 0
time step continuity errors : sum local = 7.1307e-08, global = -7.4573e-10, cumulative = -0.0029255
GAMG:  Solving for p_rgh, Initial residual = 0.01745, Final residual = 6.3669e-08, No Iterations 8
diagonal:  Solving for rho, Initial residual = 0, Final residual = 0, No Iterations 0
time step continuity errors : sum local = 2.9947e-11, global = -3.8329e-13, cumulative = -0.0029255
DILUPBiCG:  Solving for k, Initial residual = 0.056201, Final residual = 1.1776e-13, No Iterations 3
ExecutionTime = 4.54 s  ClockTime = 5 s

Courant Number mean: 0.0013937 max: 0.073789
Time = 0.54


Solving 3-D cloud reactingCloud1

--> Cloud: reactingCloud1 injector: uniformSamplingSprinklerInjection
    Added 500 new parcels

Cloud: reactingCloud1
    Current number of parcels       = 13500
    Current mass in system          = 4.1018
    Linear momentum                 = (-0.091183 -14.806 0.11675)
   |Linear momentum|                = 14.807
    Linear kinetic energy           = 95.942
    uniformSamplingSprinklerInjection:
        number of parcels added     = 13500
        mass introduced             = 4.1018
    Parcel fate (number, mass)
      - escape                      = 0, 0
      - stick                       = 0, 0
    Temperature min/max             = 300, 300
    Mass transfer phase change      = 0

diagonal:  Solving for rho, Initial residual = 0, Final residual = 0, No Iterations 0
PIMPLE: iteration 1
DILUPBiCG:  Solving for Ux, Initial residual = 0.017045, Final residual = 2.7129e-09, No Iterations 2
DILUPBiCG:  Solving for Uy, Initial residual = 0.019885, Final residual = 2.9728e-10, No Iterations 2
DILUPBiCG:  Solving for Uz, Initial residual = 0.016814, Final residual = 3.5287e-10, No Iterations 2
DILUPBiCG:  Solving for O2, Initial residual = 0.0024723, Final residual = 6.0806e-12, No Iterations 2
DILUPBiCG:  Solving for H2O, Initial residual = 0, Final residual = 0, No Iterations 0
DILUPBiCG:  Solving for CH4, Initial residual = 0, Final residual = 0, No Iterations 0
DILUPBiCG:  Solving for CO2, Initial residual = 0, Final residual = 0, No Iterations 0
      O2	min/ave/max  =	     0.23301	     0.23301	     0.23301
     H2O	min/ave/max  =	           0	           0	           0
     CH4	min/ave/max  =	           0	           0	           0
     CO2	min/ave/max  =	           0	           0	           0
      N2	min/ave/max  =	     0.76699	     0.76699	     0.76699
DILUPBiCG:  Solving for h, Initial residual = 0.00022671, Final residual = 1.391e-12, No Iterations 2
min/max(T) = 298.15, 298.24
GAMG:  Solving for p_rgh, Initial residual = 0.051581, Final residual = 0.00014727, No Iterations 3
diagonal:  Solving for rho, Initial residual = 0, Final residual = 0, No Iterations 0
time step continuity errors : sum local = 5.6938e-08, global = -6.5883e-09, cumulative = -0.0029255
GAMG:  Solving for p_rgh, Initial residual = 0.016105, Final residual = 6.6251e-08, No Iterations 8
diagonal:  Solving for rho, Initial residual = 0, Final residual = 0, No Iterations 0
time step continuity errors : sum local = 3.0681e-11, global = 6.3722e-13, cumulative = -0.0029255
DILUPBiCG:  Solving for k, Initial residual = 0.054295, Final residual = 1.4699e-13, No Iterations 3
ExecutionTime = 4.76 s  ClockTime = 5 s

Courant Number mean: 0.0014233 max: 0.075464
Time = 0.56


Solving 3-D cloud reactingCloud1

--> Cloud: reactingCloud1 injector: uniformSamplingSprinklerInjection
    Added 500 new parcels

Cloud: reactingCloud1
    Current number of parcels       = 14000
    Current mass in system          = 4.2537
    Linear momentum                 = (-0.10566 -15.288 0.12932)
   |Linear momentum|                = 15.289
    Linear kinetic energy           = 96.718
    uniformSamplingSprinklerInjection:
        number of parcels added     = 14000
        mass introduced             = 4.2537
    Parcel fate (number, mass)
      - escape                      = 0, 0
      - stick                       = 0, 0
    Temperature min/max             = 300, 300
    Mass transfer phase change      = 0

diagonal:  Solving for rho, Initial residual = 0, Final residual = 0, No Iterations 0
PIMPLE: iteration 1
DILUPBiCG:  Solving for Ux, Initial residual = 0.016823, Final residual = 7.1446e-10, No Iterations 2
DILUPBiCG:  Solving for Uy, Initial residual = 0.019586, Final residual = 2.8732e-10, No Iterations 2
DILUPBiCG:  Solving for Uz, Initial residual = 0.016776, Final residual = 2.0993e-10, No Iterations 2
DILUPBiCG:  Solving for O2, Initial residual = 0.0025166, Final residual = 2.322e-11, No Iterations 2
DILUPBiCG:  Solving for H2O, Initial residual = 0, Final residual = 0, No Iterations 0
DILUPBiCG:  Solving for CH4, Initial residual = 0, Final residual = 0, No Iterations 0
DILUPBiCG:  Solving for CO2, Initial residual = 0, Final residual = 0, No Iterations 0
      O2	min/ave/max  =	     0.23301	     0.23301	     0.23301
     H2O	min/ave/max  =	           0	           0	           0
     CH4	min/ave/max  =	           0	           0	           0
     CO2	min/ave/max  =	           0	           0	           0
      N2	min/ave/max  =	     0.76699	     0.76699	     0.76699
DILUPBiCG:  Solving for h, Initial residual = 0.00022536, Final residual = 1.1282e-12, No Iterations 2
min/max(T) = 298.15, 298.24
GAMG:  Solving for p_rgh, Initial residual = 0.047894, Final residual = 0.00014787, No Iterations 3
diagonal:  Solving for rho, Initial residual = 0, Final residual = 0, No Iterations 0
time step continuity errors : sum local = 5.6987e-08, global = 6.0998e-09, cumulative = -0.0029255
[...]
GAMG:  Solving for p_rgh, Initial residual = 0.00012335, Final residual = 8.1109e-08, No Iterations 6
diagonal:  Solving for rho, Initial residual = 0, Final residual = 0, No Iterations 0
time step continuity errors : sum local = 7.6268e-11, global = 3.19e-11, cumulative = -0.0029245
DILUPBiCG:  Solving for k, Initial residual = 0.0070173, Final residual = 1.0373e-09, No Iterations 2
ExecutionTime = 28.01 s  ClockTime = 29 s

Courant Number mean: 0.0040465 max: 0.13947
Time = 1.88


Solving 3-D cloud reactingCloud1

--> Cloud: reactingCloud1 injector: uniformSamplingSprinklerInjection
    Added 500 new parcels

Cloud: reactingCloud1
    Current number of parcels       = 43892
    Current mass in system          = 13.164
    Linear momentum                 = (0.11757 -40.062 0.20034)
   |Linear momentum|                = 40.063
    Linear kinetic energy           = 138.04
    uniformSamplingSprinklerInjection:
        number of parcels added     = 47000
        mass introduced             = 14.28
    Parcel fate (number, mass)
      - escape                      = 3108, 1.1162
      - stick                       = 0, 0
    Temperature min/max             = 300, 300
    Mass transfer phase change      = 0

diagonal:  Solving for rho, Initial residual = 0, Final residual = 0, No Iterations 0
PIMPLE: iteration 1
DILUPBiCG:  Solving for Ux, Initial residual = 0.013117, Final residual = 8.6665e-09, No Iterations 2
DILUPBiCG:  Solving for Uy, Initial residual = 0.0091133, Final residual = 8.2525e-10, No Iterations 2
DILUPBiCG:  Solving for Uz, Initial residual = 0.012869, Final residual = 4.7673e-09, No Iterations 2
DILUPBiCG:  Solving for O2, Initial residual = 0.0024956, Final residual = 3.0234e-11, No Iterations 2
DILUPBiCG:  Solving for H2O, Initial residual = 0, Final residual = 0, No Iterations 0
DILUPBiCG:  Solving for CH4, Initial residual = 0, Final residual = 0, No Iterations 0
DILUPBiCG:  Solving for CO2, Initial residual = 0, Final residual = 0, No Iterations 0
      O2	min/ave/max  =	     0.23301	     0.23301	     0.23301
     H2O	min/ave/max  =	           0	           0	           0
     CH4	min/ave/max  =	           0	           0	           0
     CO2	min/ave/max  =	           0	           0	           0
      N2	min/ave/max  =	     0.76699	     0.76699	     0.76699
DILUPBiCG:  Solving for h, Initial residual = 0.00058381, Final residual = 6.1431e-11, No Iterations 2
min/max(T) = 298.15, 298.23
GAMG:  Solving for p_rgh, Initial residual = 0.015967, Final residual = 4.3184e-05, No Iterations 3
diagonal:  Solving for rho, Initial residual = 0, Final residual = 0, No Iterations 0
time step continuity errors : sum local = 4.0985e-08, global = -2.6481e-08, cumulative = -0.0029245
GAMG:  Solving for p_rgh, Initial residual = 0.00010837, Final residual = 3.4016e-08, No Iterations 6
diagonal:  Solving for rho, Initial residual = 0, Final residual = 0, No Iterations 0
time step continuity errors : sum local = 3.2303e-11, global = -3.037e-11, cumulative = -0.0029245
DILUPBiCG:  Solving for k, Initial residual = 0.0070095, Final residual = 7.3578e-10, No Iterations 2
ExecutionTime = 28.5 s  ClockTime = 29 s

Courant Number mean: 0.0040978 max: 0.13868
Time = 1.9


Solving 3-D cloud reactingCloud1

--> Cloud: reactingCloud1 injector: uniformSamplingSprinklerInjection
    Added 500 new parcels

Cloud: reactingCloud1
    Current number of parcels       = 44254
    Current mass in system          = 13.279
    Linear momentum                 = (0.091005 -40.376 0.22577)
   |Linear momentum|                = 40.377
    Linear kinetic energy           = 138.75
    uniformSamplingSprinklerInjection:
        number of parcels added     = 47500
        mass introduced             = 14.432
    Parcel fate (number, mass)
      - escape                      = 3246, 1.1533
      - stick                       = 0, 0
    Temperature min/max             = 300, 300
    Mass transfer phase change      = 0

diagonal:  Solving for rho, Initial residual = 0, Final residual = 0, No Iterations 0
PIMPLE: iteration 1
DILUPBiCG:  Solving for Ux, Initial residual = 0.012984, Final residual = 4.4211e-09, No Iterations 2
DILUPBiCG:  Solving for Uy, Initial residual = 0.0089656, Final residual = 8.6579e-10, No Iterations 2
DILUPBiCG:  Solving for Uz, Initial residual = 0.012732, Final residual = 4.052e-09, No Iterations 2
DILUPBiCG:  Solving for O2, Initial residual = 0.0024907, Final residual = 4.2879e-11, No Iterations 2
DILUPBiCG:  Solving for H2O, Initial residual = 0, Final residual = 0, No Iterations 0
DILUPBiCG:  Solving for CH4, Initial residual = 0, Final residual = 0, No Iterations 0
DILUPBiCG:  Solving for CO2, Initial residual = 0, Final residual = 0, No Iterations 0
      O2	min/ave/max  =	     0.23301	     0.23301	     0.23301
     H2O	min/ave/max  =	           0	           0	           0
     CH4	min/ave/max  =	           0	           0	           0
     CO2	min/ave/max  =	           0	           0	           0
      N2	min/ave/max  =	     0.76699	     0.76699	     0.76699
DILUPBiCG:  Solving for h, Initial residual = 0.00058423, Final residual = 5.3711e-11, No Iterations 2
min/max(T) = 298.15, 298.23
GAMG:  Solving for p_rgh, Initial residual = 0.015714, Final residual = 0.00014868, No Iterations 2
diagonal:  Solving for rho, Initial residual = 0, Final residual = 0, No Iterations 0
time step continuity errors : sum local = 1.4265e-07, global = -6.7464e-08, cumulative = -0.0029245
GAMG:  Solving for p_rgh, Initial residual = 0.00017971, Final residual = 9.5527e-08, No Iterations 6
diagonal:  Solving for rho, Initial residual = 0, Final residual = 0, No Iterations 0
time step continuity errors : sum local = 9.2955e-11, global = -8.3747e-11, cumulative = -0.0029245
DILUPBiCG:  Solving for k, Initial residual = 0.0069829, Final residual = 6.3783e-10, No Iterations 2
ExecutionTime = 29 s  ClockTime = 30 s

Courant Number mean: 0.0041498 max: 0.13873
Time = 1.92


Solving 3-D cloud reactingCloud1

--> Cloud: reactingCloud1 injector: uniformSamplingSprinklerInjection
    Added 500 new parcels

Cloud: reactingCloud1
    Current number of parcels       = 44596
    Current mass in system          = 13.381
    Linear momentum                 = (0.097155 -40.606 0.21969)
   |Linear momentum|                = 40.607
    Linear kinetic energy           = 139.04
    uniformSamplingSprinklerInjection:
        number of parcels added     = 48000
        mass introduced             = 14.584
    Parcel fate (number, mass)
      - escape                      = 3404, 1.2027
      - stick                       = 0, 0
    Temperature min/max             = 300, 300
    Mass transfer phase change      = 0

diagonal:  Solving for rho, Initial residual = 0, Final residual = 0, No Iterations 0
PIMPLE: iteration 1
DILUPBiCG:  Solving for Ux, Initial residual = 0.013035, Final residual = 5.0386e-08, No Iterations 2
DILUPBiCG:  Solving for Uy, Initial residual = 0.0088867, Final residual = 9.9253e-10, No Iterations 2
DILUPBiCG:  Solving for Uz, Initial residual = 0.012668, Final residual = 3.7957e-09, No Iterations 2
DILUPBiCG:  Solving for O2, Initial residual = 0.0025033, Final residual = 5.0057e-11, No Iterations 2
DILUPBiCG:  Solving for H2O, Initial residual = 0, Final residual = 0, No Iterations 0
DILUPBiCG:  Solving for CH4, Initial residual = 0, Final residual = 0, No Iterations 0
DILUPBiCG:  Solving for CO2, Initial residual = 0, Final residual = 0, No Iterations 0
      O2	min/ave/max  =	     0.23301	     0.23301	     0.23301
     H2O	min/ave/max  =	           0	           0	           0
     CH4	min/ave/max  =	           0	           0	           0
     CO2	min/ave/max  =	           0	           0	           0
      N2	min/ave/max  =	     0.76699	     0.76699	     0.76699
DILUPBiCG:  Solving for h, Initial residual = 0.00057657, Final residual = 5.041e-11, No Iterations 2
min/max(T) = 298.15, 298.23
GAMG:  Solving for p_rgh, Initial residual = 0.016842, Final residual = 0.00016088, No Iterations 2
diagonal:  Solving for rho, Initial residual = 0, Final residual = 0, No Iterations 0
time step continuity errors : sum local = 1.5614e-07, global = -5.63e-08, cumulative = -0.0029246
GAMG:  Solving for p_rgh, Initial residual = 0.00022041, Final residual = 3.271e-08, No Iterations 7
diagonal:  Solving for rho, Initial residual = 0, Final residual = 0, No Iterations 0
time step continuity errors : sum local = 3.383e-11, global = -2.6774e-11, cumulative = -0.0029246
DILUPBiCG:  Solving for k, Initial residual = 0.0069299, Final residual = 5.6939e-10, No Iterations 2
ExecutionTime = 29.48 s  ClockTime = 30 s

Courant Number mean: 0.0042036 max: 0.13899
Time = 1.94


Solving 3-D cloud reactingCloud1

--> Cloud: reactingCloud1 injector: uniformSamplingSprinklerInjection
    Added 500 new parcels

Cloud: reactingCloud1
    Current number of parcels       = 44950
    Current mass in system          = 13.483
    Linear momentum                 = (0.10349 -40.805 0.28308)
   |Linear momentum|                = 40.806
    Linear kinetic energy           = 138.98
    uniformSamplingSprinklerInjection:
        number of parcels added     = 48500
        mass introduced             = 14.736
    Parcel fate (number, mass)
      - escape                      = 3550, 1.2525
      - stick                       = 0, 0
    Temperature min/max             = 300, 300
    Mass transfer phase change      = 0

diagonal:  Solving for rho, Initial residual = 0, Final residual = 0, No Iterations 0
PIMPLE: iteration 1
DILUPBiCG:  Solving for Ux, Initial residual = 0.012883, Final residual = 6.1993e-09, No Iterations 2
DILUPBiCG:  Solving for Uy, Initial residual = 0.0087291, Final residual = 9.9055e-10, No Iterations 2
DILUPBiCG:  Solving for Uz, Initial residual = 0.01258, Final residual = 4.3278e-09, No Iterations 2
DILUPBiCG:  Solving for O2, Initial residual = 0.0025632, Final residual = 2.0021e-11, No Iterations 2
DILUPBiCG:  Solving for H2O, Initial residual = 0, Final residual = 0, No Iterations 0
DILUPBiCG:  Solving for CH4, Initial residual = 0, Final residual = 0, No Iterations 0
DILUPBiCG:  Solving for CO2, Initial residual = 0, Final residual = 0, No Iterations 0
      O2	min/ave/max  =	     0.23301	     0.23301	     0.23301
     H2O	min/ave/max  =	           0	           0	           0
     CH4	min/ave/max  =	           0	           0	           0
     CO2	min/ave/max  =	           0	           0	           0
      N2	min/ave/max  =	     0.76699	     0.76699	     0.76699
DILUPBiCG:  Solving for h, Initial residual = 0.00059396, Final residual = 5.2691e-11, No Iterations 2
min/max(T) = 298.15, 298.23
GAMG:  Solving for p_rgh, Initial residual = 0.016375, Final residual = 0.00014303, No Iterations 2
diagonal:  Solving for rho, Initial residual = 0, Final residual = 0, No Iterations 0
time step continuity errors : sum local = 1.404e-07, global = -7.1599e-08, cumulative = -0.0029247
GAMG:  Solving for p_rgh, Initial residual = 0.00018661, Final residual = 9.5657e-08, No Iterations 6
diagonal:  Solving for rho, Initial residual = 0, Final residual = 0, No Iterations 0
time step continuity errors : sum local = 9.603e-11, global = -8.9096e-11, cumulative = -0.0029247
DILUPBiCG:  Solving for k, Initial residual = 0.0068473, Final residual = 5.2824e-10, No Iterations 2
ExecutionTime = 29.99 s  ClockTime = 31 s

Courant Number mean: 0.0042565 max: 0.13899
Time = 1.96


Solving 3-D cloud reactingCloud1

--> Cloud: reactingCloud1 injector: uniformSamplingSprinklerInjection
    Added 500 new parcels

Cloud: reactingCloud1
    Current number of parcels       = 45303
    Current mass in system          = 13.589
    Linear momentum                 = (0.15352 -41.143 0.24683)
   |Linear momentum|                = 41.144
    Linear kinetic energy           = 140.15
    uniformSamplingSprinklerInjection:
        number of parcels added     = 49000
        mass introduced             = 14.888
    Parcel fate (number, mass)
      - escape                      = 3697, 1.2991
      - stick                       = 0, 0
    Temperature min/max             = 300, 300
    Mass transfer phase change      = 0

diagonal:  Solving for rho, Initial residual = 0, Final residual = 0, No Iterations 0
PIMPLE: iteration 1
DILUPBiCG:  Solving for Ux, Initial residual = 0.012984, Final residual = 2.0443e-09, No Iterations 2
DILUPBiCG:  Solving for Uy, Initial residual = 0.0086465, Final residual = 9.9557e-10, No Iterations 2
DILUPBiCG:  Solving for Uz, Initial residual = 0.012549, Final residual = 3.1611e-09, No Iterations 2
DILUPBiCG:  Solving for O2, Initial residual = 0.0025059, Final residual = 4.1042e-11, No Iterations 2
DILUPBiCG:  Solving for H2O, Initial residual = 0, Final residual = 0, No Iterations 0
DILUPBiCG:  Solving for CH4, Initial residual = 0, Final residual = 0, No Iterations 0
DILUPBiCG:  Solving for CO2, Initial residual = 0, Final residual = 0, No Iterations 0
      O2	min/ave/max  =	     0.23301	     0.23301	     0.23301
     H2O	min/ave/max  =	           0	           0	           0
     CH4	min/ave/max  =	           0	           0	           0
     CO2	min/ave/max  =	           0	           0	           0
      N2	min/ave/max  =	     0.76699	     0.76699	     0.76699
DILUPBiCG:  Solving for h, Initial residual = 0.00059195, Final residual = 4.5925e-11, No Iterations 2
min/max(T) = 298.15, 298.23
GAMG:  Solving for p_rgh, Initial residual = 0.016629, Final residual = 0.00014983, No Iterations 2
diagonal:  Solving for rho, Initial residual = 0, Final residual = 0, No Iterations 0
time step continuity errors : sum local = 1.4865e-07, global = -7.0438e-08, cumulative = -0.0029247
GAMG:  Solving for p_rgh, Initial residual = 0.00020096, Final residual = 3.1436e-08, No Iterations 7
diagonal:  Solving for rho, Initial residual = 0, Final residual = 0, No Iterations 0
time step continuity errors : sum local = 3.2945e-11, global = -2.9104e-11, cumulative = -0.0029247
DILUPBiCG:  Solving for k, Initial residual = 0.0068024, Final residual = 5.1378e-10, No Iterations 2
ExecutionTime = 30.48 s  ClockTime = 31 s

Courant Number mean: 0.0043089 max: 0.13954
Time = 1.98


Solving 3-D cloud reactingCloud1

--> Cloud: reactingCloud1 injector: uniformSamplingSprinklerInjection
    Added 500 new parcels

Cloud: reactingCloud1
    Current number of parcels       = 45647
    Current mass in system          = 13.688
    Linear momentum                 = (0.12709 -41.411 0.2933)
   |Linear momentum|                = 41.412
    Linear kinetic energy           = 140.99
    uniformSamplingSprinklerInjection:
        number of parcels added     = 49500
        mass introduced             = 15.04
    Parcel fate (number, mass)
      - escape                      = 3853, 1.3518
      - stick                       = 0, 0
    Temperature min/max             = 300, 300
    Mass transfer phase change      = 0

diagonal:  Solving for rho, Initial residual = 0, Final residual = 0, No Iterations 0
PIMPLE: iteration 1
DILUPBiCG:  Solving for Ux, Initial residual = 0.01286, Final residual = 2.1369e-09, No Iterations 2
DILUPBiCG:  Solving for Uy, Initial residual = 0.0085893, Final residual = 9.9775e-10, No Iterations 2
DILUPBiCG:  Solving for Uz, Initial residual = 0.012491, Final residual = 2.711e-09, No Iterations 2
DILUPBiCG:  Solving for O2, Initial residual = 0.0024664, Final residual = 1.0941e-10, No Iterations 2
DILUPBiCG:  Solving for H2O, Initial residual = 0, Final residual = 0, No Iterations 0
DILUPBiCG:  Solving for CH4, Initial residual = 0, Final residual = 0, No Iterations 0
DILUPBiCG:  Solving for CO2, Initial residual = 0, Final residual = 0, No Iterations 0
      O2	min/ave/max  =	     0.23301	     0.23301	     0.23301
     H2O	min/ave/max  =	           0	           0	           0
     CH4	min/ave/max  =	           0	           0	           0
     CO2	min/ave/max  =	           0	           0	           0
      N2	min/ave/max  =	     0.76699	     0.76699	     0.76699
DILUPBiCG:  Solving for h, Initial residual = 0.00059866, Final residual = 5.0474e-11, No Iterations 2
min/max(T) = 298.15, 298.23
GAMG:  Solving for p_rgh, Initial residual = 0.01614, Final residual = 0.00014535, No Iterations 2
diagonal:  Solving for rho, Initial residual = 0, Final residual = 0, No Iterations 0
time step continuity errors : sum local = 1.4566e-07, global = -7.3433e-08, cumulative = -0.0029248
GAMG:  Solving for p_rgh, Initial residual = 0.00019125, Final residual = 9.3618e-08, No Iterations 6
diagonal:  Solving for rho, Initial residual = 0, Final residual = 0, No Iterations 0
time step continuity errors : sum local = 9.5851e-11, global = -8.7523e-11, cumulative = -0.0029248
DILUPBiCG:  Solving for k, Initial residual = 0.0067746, Final residual = 5.2288e-10, No Iterations 2
ExecutionTime = 30.97 s  ClockTime = 32 s

Courant Number mean: 0.0043613 max: 0.13988
Time = 2


Solving 3-D cloud reactingCloud1

--> Cloud: reactingCloud1 injector: uniformSamplingSprinklerInjection
    Added 500 new parcels

Cloud: reactingCloud1
    Current number of parcels       = 45992
    Current mass in system          = 13.79
    Linear momentum                 = (0.093548 -41.658 0.22848)
   |Linear momentum|                = 41.658
    Linear kinetic energy           = 141.24
    uniformSamplingSprinklerInjection:
        number of parcels added     = 50000
        mass introduced             = 15.192
    Parcel fate (number, mass)
      - escape                      = 4008, 1.4019
      - stick                       = 0, 0
    Temperature min/max             = 300, 300
    Mass transfer phase change      = 0

facePostProcessing output:
    sampleFaces1: total mass = 12.611; average mass flow rate = 8.0616
    sampleFaces2: total mass = 1.6191; average mass flow rate = 1.5161

particleCollectorFmg output:
    sum(total mass) = 5.1644
    sum(average mass flow rate) = 5.1644

diagonal:  Solving for rho, Initial residual = 0, Final residual = 0, No Iterations 0
PIMPLE: iteration 1
DILUPBiCG:  Solving for Ux, Initial residual = 0.012825, Final residual = 3.4796e-09, No Iterations 2
DILUPBiCG:  Solving for Uy, Initial residual = 0.0084522, Final residual = 9.9328e-10, No Iterations 2
DILUPBiCG:  Solving for Uz, Initial residual = 0.012272, Final residual = 3.5929e-09, No Iterations 2
DILUPBiCG:  Solving for O2, Initial residual = 0.0025304, Final residual = 2.9485e-11, No Iterations 2
DILUPBiCG:  Solving for H2O, Initial residual = 0, Final residual = 0, No Iterations 0
DILUPBiCG:  Solving for CH4, Initial residual = 0, Final residual = 0, No Iterations 0
DILUPBiCG:  Solving for CO2, Initial residual = 0, Final residual = 0, No Iterations 0
      O2	min/ave/max  =	     0.23301	     0.23301	     0.23301
     H2O	min/ave/max  =	           0	           0	           0
     CH4	min/ave/max  =	           0	           0	           0
     CO2	min/ave/max  =	           0	           0	           0
      N2	min/ave/max  =	     0.76699	     0.76699	     0.76699
DILUPBiCG:  Solving for h, Initial residual = 0.0006037, Final residual = 4.8808e-11, No Iterations 2
min/max(T) = 298.15, 298.23
GAMG:  Solving for p_rgh, Initial residual = 0.016507, Final residual = 0.00013578, No Iterations 2
diagonal:  Solving for rho, Initial residual = 0, Final residual = 0, No Iterations 0
time step continuity errors : sum local = 1.3754e-07, global = -7.614e-08, cumulative = -0.0029249
GAMG:  Solving for p_rgh, Initial residual = 0.0001885, Final residual = 9.5093e-08, No Iterations 6
diagonal:  Solving for rho, Initial residual = 0, Final residual = 0, No Iterations 0
time step continuity errors : sum local = 9.8975e-11, global = -9.1257e-11, cumulative = -0.0029249
DILUPBiCG:  Solving for k, Initial residual = 0.0067605, Final residual = 5.1503e-10, No Iterations 2
ExecutionTime = 31.84 s  ClockTime = 32 s +

fieldAverage fieldAverage1:
    Reading/initialising field UMean

fieldAverage fieldAverage1 output:
    Calculating averages

    Writing average fields

End
